
11280714432D 1   1.00000     0.00000     0

 23 25  0     0  0            999 V2000
    5.4125   -2.6750    0.0000 C   0  0  0  0  0  0           0  0  0
    3.9875   -2.6792    0.0000 C   0  0  0  0  0  0           0  0  0
    4.6917   -2.2667    0.0000 C   0  0  0  0  0  0           0  0  0
    3.9875   -3.5042    0.0000 C   0  0  0  0  0  0           0  0  0
    5.4167   -3.5042    0.0000 C   0  0  0  0  0  0           0  0  0
    4.7042   -3.9167    0.0000 N   0  0  3  0  0  0           0  0  0
    3.2667   -3.9250    0.0000 C   0  0  0  0  0  0           0  0  0
    2.5542   -3.5125    0.0000 C   0  0  0  0  0  0           0  0  0
    3.2667   -2.2667    0.0000 C   0  0  0  0  0  0           0  0  0
    6.1250   -2.2542    0.0000 C   0  0  0  0  0  0           0  0  0
    2.5542   -2.6875    0.0000 C   0  0  0  0  0  0           0  0  0
    1.8417   -3.9250    0.0000 N   0  0  3  0  0  0           0  0  0
    4.6917   -1.4417    0.0000 O   0  0  0  0  0  0           0  0  0
    0.4167   -4.7417    0.0000 N   0  0  0  0  0  0           0  0  0
    6.1167   -1.4292    0.0000 O   0  0  0  0  0  0           0  0  0
    1.8417   -2.2750    0.0000 F   0  0  0  0  0  0           0  0  0
    6.8417   -2.6667    0.0000 O   0  0  0  0  0  0           0  0  0
    4.7042   -4.7417    0.0000 C   0  0  0  0  0  0           0  0  0
    1.8500   -4.7417    0.0000 C   0  0  0  0  0  0           0  0  0
    1.1292   -3.5042    0.0000 C   0  0  0  0  0  0           0  0  0
    0.4167   -3.9167    0.0000 C   0  0  0  0  0  0           0  0  0
    1.1292   -5.1542    0.0000 C   0  0  0  0  0  0           0  0  0
    5.4167   -5.1500    0.0000 C   0  0  0  0  0  0           0  0  0
  2  3  1  0     0  0
  3  1  1  0     0  0
  4  6  1  0     0  0
  5  1  2  0     0  0
  6  5  1  0     0  0
  7  4  2  0     0  0
  8  7  1  0     0  0
  9  2  2  0     0  0
 10  1  1  0     0  0
 11  9  1  0     0  0
 12  8  1  0     0  0
 13  3  2  0     0  0
 14 21  1  0     0  0
 15 10  2  0     0  0
 16 11  1  0     0  0
 17 10  1  0     0  0
 18  6  1  0     0  0
 19 12  1  0     0  0
 20 12  1  0     0  0
 21 20  1  0     0  0
 22 19  1  0     0  0
 23 18  1  0     0  0
  2  4  1  0     0  0
 11  8  2  0     0  0
 22 14  1  0     0  0
M  END
> <ID>
CHEBI:100246

> <NAME>
norfloxacin

> <DEFINITION>
A quinolinemonocarboxylic acid with broad-spectrum antibacterial activity against most gram-negative and gram-positive bacteria. Norfloxacin is bactericidal and its mode of action depends on blocking of bacterial DNA replication by binding itself to an enzyme called DNA gyrase.

> <STAR>
3

> <SECONDARY_ID>
CHEBI:7629

> <SYNONYM>
NFLX; 1-Ethyl-6-fluoro-1,4-dihydro-4-oxo-7-(1-piperazinyl)-3-quinolinecarboxylic acid; 1-Ethyl-6-fluor-1,4-dihydro-4-oxo-7-(1-piperazinyl)-3-chinolincarbonsaeure; 1,4-Dihydro-1-ethyl-6-fluoro-4-oxo-7-(1-piperazinyl)-3-quinolinecarboxylic acid

> <IUPAC_NAME>
1-ethyl-6-fluoro-4-oxo-7-(piperazin-1-yl)-1,4-dihydroquinoline-3-carboxylic acid

> <INN>
norfloxacinum; norfloxacino; norfloxacine; norfloxacin

> <FORMULA>
C16H18FN3O3

> <MASS>
319.33080

> <MONOISOTOPIC_MASS>
319.13322

> <CHARGE>
0

> <SMILES>
CCn1cc(C(O)=O)c(=O)c2cc(F)c(cc12)N1CCNCC1

> <INCHI>
InChI=1S/C16H18FN3O3/c1-2-19-9-11(16(22)23)15(21)10-7-12(17)14(8-13(10)19)20-5-3-18-4-6-20/h7-9,18H,2-6H2,1H3,(H,22,23)

> <INCHIKEY>
OGJPXUAPXNRGGI-UHFFFAOYSA-N

> <BEILSTEIN_REGISTRY_NUMBER>
567897

> <CAS_REGISTRY_NUMBER>
70458-96-7

> <GMELIN_REGISTRY_NUMBER>
1576626

> <REAXYS_REGISTRY_NUMBER>
567897

> <CHEMIDPLUS>
70458-96-7

> <DRUGBANK_ACCESSION>
DB01059

> <HMDB_ACCESSION>
HMDB0015192

> <KEGG_COMPOUND_ACCESSION>
C06687

> <KEGG_DRUG_ACCESSION>
D00210

> <LINCS_ACCESSION>
LSM-5286

> <WIKIPEDIA_ACCESSION>
Norfloxacin

> <PUBMED_CITATION>
3317294; 3908074; 6211142; 6224685; 6234465; 6454381; 6461606

$$$$

Marvin  11291016192D          

 23 24  0  0  1  0            999 V2000
   13.6910   -8.5306    0.0000 C   0  0  0  0  0  0  0  0  0  0  0  0
   13.6944   -9.3556    0.0000 C   0  0  0  0  0  0  0  0  0  0  0  0
   12.9864   -8.1182    0.0000 C   0  0  0  0  0  0  0  0  0  0  0  0
   14.4060   -8.1182    0.0000 C   0  0  0  0  0  0  0  0  0  0  0  0
   12.9864   -9.7716    0.0000 C   0  0  0  0  0  0  0  0  0  0  0  0
   14.4129   -9.7682    0.0000 C   0  0  0  0  0  0  0  0  0  0  0  0
   12.2679   -8.5306    0.0000 C   0  0  0  0  0  0  0  0  0  0  0  0
   15.1210   -8.5273    0.0000 C   0  0  0  0  0  0  0  0  0  0  0  0
   12.2679   -9.3556    0.0000 C   0  0  0  0  0  0  0  0  0  0  0  0
   12.9864  -10.6001    0.0000 O   0  0  0  0  0  0  0  0  0  0  0  0
   15.1279   -9.3523    0.0000 O   0  0  0  0  0  0  0  0  0  0  0  0
   14.4164  -10.5966    0.0000 O   0  0  0  0  0  0  0  0  0  0  0  0
   11.5528   -8.1182    0.0000 O   0  0  0  0  0  0  0  0  0  0  0  0
   15.8325   -8.1113    0.0000 C   0  0  0  0  0  0  0  0  0  0  0  0
   15.8463   -9.7579    0.0000 C   0  0  2  0  0  0  0  0  0  0  0  0
   16.5441   -8.5135    0.0000 C   0  0  0  0  0  0  0  0  0  0  0  0
   16.5579   -9.3385    0.0000 C   0  0  0  0  0  0  0  0  0  0  0  0
   15.8944  -10.5863    0.0000 C   0  0  0  0  0  0  0  0  0  0  0  0
   17.2523   -8.0941    0.0000 C   0  0  0  0  0  0  0  0  0  0  0  0
   17.2763   -9.7406    0.0000 C   0  0  0  0  0  0  0  0  0  0  0  0
   17.9741   -8.4929    0.0000 C   0  0  0  0  0  0  0  0  0  0  0  0
   17.9845   -9.3179    0.0000 C   0  0  0  0  0  0  0  0  0  0  0  0
   18.6857   -8.0735    0.0000 O   0  0  0  0  0  0  0  0  0  0  0  0
  1  2  1  0  0  0  0
  1  3  2  0  0  0  0
  1  4  1  0  0  0  0
  2  5  2  0  0  0  0
  2  6  1  0  0  0  0
  3  7  1  0  0  0  0
  4  8  2  0  0  0  0
  5  9  1  0  0  0  0
  5 10  1  0  0  0  0
  6 11  1  0  0  0  0
  6 12  2  0  0  0  0
  7 13  1  0  0  0  0
  8 14  1  0  0  0  0
 11 15  1  0  0  0  0
 14 16  1  0  0  0  0
 15 17  1  0  0  0  0
 15 18  1  6  0  0  0
 16 19  1  0  0  0  0
 17 20  1  0  0  0  0
 19 21  1  0  0  0  0
 20 22  1  0  0  0  0
 21 23  2  0  0  0  0
  7  9  2  0  0  0  0
 21 22  1  0  0  0  0
M  END
> <ID>
CHEBI:10106

> <NAME>
zearalenone

> <DEFINITION>
A macrolide comprising a fourteen-membered lactone fused to 1,3-dihydroxybenzene; a potent estrogenic metabolite produced by some Giberella species.

> <STAR>
3

> <SYNONYM>
trans-Zearalenone; 6-(10-Hydroxy-6-oxo-trans-1-undecenyl)-beta-resorcylic acid lactone; (S-(E))-3,4,5,6,9,10-Hexahydro-14,16-dihydroxy-3-methyl-1H-2-benzoxacyclotetradecin-1,7(8H)-dione; (S)-Zearalenone; (S)-(-)-Zearalenone; (10S)-Zearalenone; (-)-Zearalenone

> <IUPAC_NAME>
(3S,11E)-14,16-dihydroxy-3-methyl-3,4,5,6,9,10-hexahydro-1H-2-benzoxacyclotetradecine-1,7(8H)-dione

> <FORMULA>
C18H22O5

> <MASS>
318.36430

> <MONOISOTOPIC_MASS>
318.14672

> <CHARGE>
0

> <SMILES>
C[C@H]1CCCC(=O)CCC\C=C\c2cc(O)cc(O)c2C(=O)O1

> <INCHI>
InChI=1S/C18H22O5/c1-12-6-5-9-14(19)8-4-2-3-7-13-10-15(20)11-16(21)17(13)18(22)23-12/h3,7,10-12,20-21H,2,4-6,8-9H2,1H3/b7-3+/t12-/m0/s1

> <INCHIKEY>
MBMQEIFVQACCCH-QBODLPLBSA-N

> <CAS_REGISTRY_NUMBER>
17924-92-4

> <REAXYS_REGISTRY_NUMBER>
4875541

> <CHEMIDPLUS>
17924-92-4

> <KEGG_COMPOUND_ACCESSION>
C09981

> <KNAPSACK_ACCESSION>
C00003025

> <LIPID_MAPS_INSTANCE_ACCESSION>
LMPK04000016

> <PUBMED_CITATION>
17339071; 18027362; 18221829; 18280460; 18692541; 20654554

$$$$

11280714452D 1   1.00000     0.00000     0

 13 15  0     0  0            999 V2000
    0.9125   -1.1667    0.0000 N   0  0  0  0  0  0           0  0  0
    1.4292   -0.8667    0.0000 C   0  0  0  0  0  0           0  0  0
    0.3917   -0.8667    0.0000 C   0  0  0  0  0  0           0  0  0
    1.4292   -0.2667    0.0000 C   0  0  0  0  0  0           0  0  0
    0.3917   -0.2667    0.0000 C   0  0  0  0  0  0           0  0  0
    2.4667   -0.8667    0.0000 N   0  0  0  0  0  0           0  0  0
    1.9417   -1.1667    0.0000 C   0  0  0  0  0  0           0  0  0
    1.9500    0.0333    0.0000 C   0  0  0  0  0  0           0  0  0
   -0.1333    0.0333    0.0000 C   0  0  0  0  0  0           0  0  0
   -0.1333   -1.1667    0.0000 C   0  0  0  0  0  0           0  0  0
    2.4667   -0.2667    0.0000 C   0  0  0  0  0  0           0  0  0
   -0.6458   -0.2667    0.0000 C   0  0  0  0  0  0           0  0  0
   -0.6458   -0.8667    0.0000 C   0  0  0  0  0  0           0  0  0
  2  1  1  0     0  0
  3  1  1  0     0  0
  4  2  2  0     0  0
  5  3  2  0     0  0
  6  7  2  0     0  0
  7  2  1  0     0  0
  8  4  1  0     0  0
  9  5  1  0     0  0
 10  3  1  0     0  0
 11  6  1  0     0  0
 12 13  1  0     0  0
 13 10  2  0     0  0
  4  5  1  0     0  0
 12  9  2  0     0  0
  8 11  2  0     0  0
M  END
> <ID>
CHEBI:109895

> <NAME>
beta-carboline

> <DEFINITION>
The parent compound of the β-carbolines, a tricyclic structure comprising an indole ring system ortho- fused to C-3 and C-4 of a pyridine ring.

> <STAR>
3

> <SYNONYM>
Norharmane; Norharman; Carbazoline; beta-carboline; 9H-pyrido[3,4-b]indole; 9H-Pyrido(3,4-B)indole; 9H-beta-Carboline; 2-Azacarbazole; 2,9-Diazafluorene

> <IUPAC_NAME>
9H-beta-carboline

> <FORMULA>
C11H8N2

> <MASS>
168.19460

> <MONOISOTOPIC_MASS>
168.06875

> <CHARGE>
0

> <SMILES>
c1ccc2c(c1)[nH]c1cnccc21

> <INCHI>
InChI=1S/C11H8N2/c1-2-4-10-8(3-1)9-5-6-12-7-11(9)13-10/h1-7,13H

> <INCHIKEY>
AIFRHYZBTHREPW-UHFFFAOYSA-N

> <BEILSTEIN_REGISTRY_NUMBER>
128414

> <CAS_REGISTRY_NUMBER>
244-63-3

> <REAXYS_REGISTRY_NUMBER>
128414

> <CHEMIDPLUS>
244-63-3

> <HMDB_ACCESSION>
HMDB0012897

> <KEGG_COMPOUND_ACCESSION>
C20157

> <LINCS_ACCESSION>
LSM-19021

> <METACYC_ACCESSION>
CPD-15304

> <NIST_CHEMISTRY_WEBBOOK>
244-63-3

> <PDBECHEM_ACCESSION>
NRH

> <WIKIPEDIA_ACCESSION>
Beta-Carboline

> <PUBMED_CITATION>
23600147; 8070089

$$$$

ISISHOST03240423232D 1   1.00000     0.00000  8684

 13 14  0     1  0            999 V2000
    0.2724   -0.2862    0.0000 C   0  0  0  0  0  0           0  0  0
    0.2759    0.5414    0.0000 C   0  0  0  0  0  0           0  0  0
    0.9897   -0.7034    0.0000 C   0  0  1  0  0  0           0  0  0
   -0.4379   -0.7000    0.0000 C   0  0  0  0  0  0           0  0  0
   -0.4379    0.9586    0.0000 C   0  0  0  0  0  0           0  0  0
    0.9966    0.9552    0.0000 C   0  0  0  0  0  0           0  0  0
    1.7103   -0.2931    0.0000 N   0  0  0  0  0  0           0  0  0
    0.9793   -1.5276    0.0000 C   0  0  0  0  0  0           0  0  0
   -1.1586   -0.2862    0.0000 C   0  0  0  0  0  0           0  0  0
   -1.1586    0.5414    0.0000 C   0  0  0  0  0  0           0  0  0
    1.7138    0.5379    0.0000 C   0  0  0  0  0  0           0  0  0
   -1.8724   -0.7000    0.0000 O   0  0  0  0  0  0           0  0  0
   -1.8724    0.9586    0.0000 O   0  0  0  0  0  0           0  0  0
  1  2  2  0     0  0
  1  3  1  0     0  0
  1  4  1  0     0  0
  2  5  1  0     0  0
  2  6  1  0     0  0
  3  7  1  0     0  0
  3  8  1  1     0  0
  4  9  2  0     0  0
  5 10  2  0     0  0
  6 11  1  0     0  0
  9 12  1  0     0  0
 10 13  1  0     0  0
  7 11  1  0     0  0
  9 10  1  0     0  0
M  END
> <ID>
CHEBI:113

> <NAME>
(-)-Salsolinol

> <STAR>
2

> <SYNONYM>
Salsolinol; 6,7-Isoquinolinediol, 1,2,3,4-tetrahydro-1-methyl-, (S)-; (-)-Salsolinol

> <FORMULA>
C10H13NO2; C10H13NO2

> <MASS>
179.216

> <MONOISOTOPIC_MASS>
179.09463

> <CHARGE>
0

> <SMILES>
C[C@@H]1NCCc2cc(O)c(O)cc12

> <INCHI>
InChI=1S/C10H13NO2/c1-6-8-5-10(13)9(12)4-7(8)2-3-11-6/h4-6,11-13H,2-3H2,1H3/t6-/m0/s1

> <INCHIKEY>
IBRKLUSXDYATLG-LURJTMIESA-N

> <CAS_REGISTRY_NUMBER>
27740-96-1

> <HMDB_ACCESSION>
HMDB0042012

> <KEGG_COMPOUND_ACCESSION>
C09642

> <KNAPSACK_ACCESSION>
C00001915

> <LINCS_ACCESSION>
LSM-4243

$$$$

Marvin  06111016312D          

 21 20  0  0  0  0            999 V2000
   19.7797  -28.0279    0.0000 C   0  0  0  0  0  0  0  0  0  0  0  0
   19.7797  -27.2029    0.0000 O   0  0  0  0  0  0  0  0  0  0  0  0
   18.3507  -28.0279    0.0000 N   0  0  0  0  0  0  0  0  0  0  0  0
   19.0652  -28.4404    0.0000 C   0  0  0  0  0  0  0  0  0  0  0  0
   20.4942  -28.4404    0.0000 O   0  0  0  0  0  0  0  0  0  0  0  0
   17.6362  -28.4404    0.0000 C   0  0  0  0  0  0  0  0  0  0  0  0
   17.6362  -29.2654    0.0000 O   0  0  0  0  0  0  0  0  0  0  0  0
   16.2073  -28.4404    0.0000 N   0  0  0  0  0  0  0  0  0  0  0  0
   16.9218  -28.0279    0.0000 C   0  0  0  0  0  0  0  0  0  0  0  0
   15.4928  -28.0279    0.0000 C   0  0  0  0  0  0  0  0  0  0  0  0
   15.4928  -27.2029    0.0000 O   0  0  0  0  0  0  0  0  0  0  0  0
   14.0638  -28.0279    0.0000 N   0  0  0  0  0  0  0  0  0  0  0  0
   14.7784  -28.4404    0.0000 C   0  0  0  0  0  0  0  0  0  0  0  0
   13.3494  -28.4404    0.0000 C   0  0  0  0  0  0  0  0  0  0  0  0
   13.3494  -29.2654    0.0000 O   0  0  0  0  0  0  0  0  0  0  0  0
   11.9204  -28.4404    0.0000 N   0  0  0  0  0  0  0  0  0  0  0  0
   12.6349  -28.0279    0.0000 C   0  0  0  0  0  0  0  0  0  0  0  0
   11.2059  -28.0279    0.0000 C   0  0  0  0  0  0  0  0  0  0  0  0
   11.2059  -27.2029    0.0000 O   0  0  0  0  0  0  0  0  0  0  0  0
    9.7769  -28.0279    0.0000 N   0  0  0  0  0  0  0  0  0  0  0  0
   10.4914  -28.4404    0.0000 C   0  0  0  0  0  0  0  0  0  0  0  0
  1  2  2  0  0  0  0
  1  4  1  0  0  0  0
  3  4  1  0  0  0  0
  5  1  1  0  0  0  0
  6  7  2  0  0  0  0
  6  9  1  0  0  0  0
  8  9  1  0  0  0  0
  3  6  1  0  0  0  0
 10 11  2  0  0  0  0
 10 13  1  0  0  0  0
 12 13  1  0  0  0  0
  8 10  1  0  0  0  0
 14 15  2  0  0  0  0
 14 17  1  0  0  0  0
 16 17  1  0  0  0  0
 12 14  1  0  0  0  0
 18 19  2  0  0  0  0
 18 21  1  0  0  0  0
 20 21  1  0  0  0  0
 16 18  1  0  0  0  0
M  END
> <ID>
CHEBI:114248

> <NAME>
pentaglycine

> <DEFINITION>
A pentapeptide comprised of five glycine residues.

> <STAR>
3

> <SYNONYM>
N-(N-(N-(N-Glycylglycyl)glycyl)glycyl)glycine; Gly-Gly-Gly-Gly-Gly

> <IUPAC_NAME>
glycylglycylglycylglycylglycine

> <FORMULA>
C10H17N5O6

> <MASS>
303.27190

> <MONOISOTOPIC_MASS>
303.11788

> <CHARGE>
0

> <SMILES>
NCC(=O)NCC(=O)NCC(=O)NCC(=O)NCC(O)=O

> <INCHI>
InChI=1S/C10H17N5O6/c11-1-6(16)12-2-7(17)13-3-8(18)14-4-9(19)15-5-10(20)21/h1-5,11H2,(H,12,16)(H,13,17)(H,14,18)(H,15,19)(H,20,21)

> <INCHIKEY>
MXHCPCSDRGLRER-UHFFFAOYSA-N

> <BEILSTEIN_REGISTRY_NUMBER>
1716946

> <CAS_REGISTRY_NUMBER>
7093-67-6

> <CHEMIDPLUS>
7093-67-6

> <NIST_CHEMISTRY_WEBBOOK>
7093-67-6

> <PUBMED_CITATION>
17042264; 2473994; 27365280

$$$$

11280714462D 1   1.00000     0.00000     0

 25 27  0     0  0            999 V2000
    5.1917   -2.9250    0.0000 C   0  0  0  0  0  0           0  0  0
    3.7625   -2.9250    0.0000 C   0  0  0  0  0  0           0  0  0
    4.4750   -4.1667    0.0000 N   0  0  3  0  0  0           0  0  0
    3.7542   -3.7500    0.0000 C   0  0  0  0  0  0           0  0  0
    4.4750   -2.5042    0.0000 C   0  0  0  0  0  0           0  0  0
    3.0417   -4.1667    0.0000 C   0  0  0  0  0  0           0  0  0
    5.1917   -3.7542    0.0000 C   0  0  0  0  0  0           0  0  0
    2.3292   -3.7542    0.0000 C   0  0  0  0  0  0           0  0  0
    1.6167   -4.1667    0.0000 N   0  0  3  0  0  0           0  0  0
    2.3292   -2.9250    0.0000 C   0  0  0  0  0  0           0  0  0
    3.0417   -2.5125    0.0000 C   0  0  0  0  0  0           0  0  0
    5.9042   -2.5167    0.0000 C   0  0  0  0  0  0           0  0  0
    1.6250   -4.9875    0.0000 C   0  0  0  0  0  0           0  0  0
    4.4750   -1.6792    0.0000 O   0  0  0  0  0  0           0  0  0
    0.1917   -4.9792    0.0000 N   0  0  0  0  0  0           0  0  0
    5.9042   -1.6917    0.0000 O   0  0  0  0  0  0           0  0  0
    3.0500   -4.9917    0.0000 F   0  0  0  0  0  0           0  0  0
    1.6167   -2.5167    0.0000 F   0  0  0  0  0  0           0  0  0
    0.9042   -3.7500    0.0000 C   0  0  0  0  0  0           0  0  0
    4.4667   -4.9917    0.0000 C   0  0  0  0  0  0           0  0  0
    0.9042   -5.3917    0.0000 C   0  0  3  0  0  0           0  0  0
    6.6167   -2.9292    0.0000 O   0  0  0  0  0  0           0  0  0
    0.1917   -4.1542    0.0000 C   0  0  0  0  0  0           0  0  0
    0.9000   -6.2167    0.0000 C   0  0  0  0  0  0           0  0  0
    5.1792   -5.4042    0.0000 C   0  0  0  0  0  0           0  0  0
  2  5  1  0     0  0
  3  7  1  0     0  0
  4  3  1  0     0  0
  5  1  1  0     0  0
  6  4  2  0     0  0
  7  1  2  0     0  0
  8  6  1  0     0  0
  9  8  1  0     0  0
 10 11  1  0     0  0
 11  2  2  0     0  0
 12  1  1  0     0  0
 13  9  1  0     0  0
 14  5  2  0     0  0
 15 23  1  0     0  0
 16 12  2  0     0  0
 17  6  1  0     0  0
 18 10  1  0     0  0
 19  9  1  0     0  0
 20  3  1  0     0  0
 21 13  1  0     0  0
 22 12  1  0     0  0
 23 19  1  0     0  0
 24 21  1  0     0  0
 25 20  1  0     0  0
  2  4  1  0     0  0
 10  8  2  0     0  0
 21 15  1  0     0  0
M  END
> <ID>
CHEBI:116278

> <NAME>
lomefloxacin

> <DEFINITION>
A fluoroquinolone antibiotic, used (generally as the hydrochloride salt) to treat bacterial infections including bronchitis and urinary tract infections. It is also used to prevent urinary tract infections prior to surgery.

> <STAR>
3

> <SECONDARY_ID>
CHEBI:6517

> <SYNONYM>
Lomefloxacinum; Lomefloxacino; Lomefloxacine; LFLX; 1,4-Dihydro-6,8-difluoro-1-ethyl-7-(3-methyl-1-piperazinyl)-4-oxo-3-quinolinecarboxylic acid; (+-)-1-ethyl-6,8-difluoro-1,4-dihydro-7-(3-methyl-1-piperazinyl)-4-oxo-3-quinolinecarboxylic acid

> <IUPAC_NAME>
1-ethyl-6,8-difluoro-7-(3-methylpiperazin-1-yl)-4-oxo-1,4-dihydroquinoline-3-carboxylic acid

> <INN>
lomefloxacin

> <FORMULA>
C17H19F2N3O3

> <MASS>
351.34790

> <MONOISOTOPIC_MASS>
351.13945

> <CHARGE>
0

> <SMILES>
CCn1cc(C(O)=O)c(=O)c2cc(F)c(N3CCNC(C)C3)c(F)c12

> <INCHI>
InChI=1S/C17H19F2N3O3/c1-3-21-8-11(17(24)25)16(23)10-6-12(18)15(13(19)14(10)21)22-5-4-20-9(2)7-22/h6,8-9,20H,3-5,7H2,1-2H3,(H,24,25)

> <INCHIKEY>
ZEKZLJVOYLTDKK-UHFFFAOYSA-N

> <BEILSTEIN_REGISTRY_NUMBER>
4210041

> <CAS_REGISTRY_NUMBER>
98079-51-7

> <CHEMIDPLUS>
98079-51-7

> <DRUGBANK_ACCESSION>
DB00978

> <KEGG_COMPOUND_ACCESSION>
C07078

> <KEGG_DRUG_ACCESSION>
D02318

> <LINCS_ACCESSION>
LSM-5145

> <WIKIPEDIA_ACCESSION>
Lomefloxacin

> <PUBMED_CITATION>
11195849; 3134843; 3348607; 3476021

$$$$

Marvin  11051015192D          

 25 27  0  0  0  0            999 V2000
    8.8088   -4.4643    0.0000 N   0  0  0  0  0  0  0  0  0  0  0  0
    9.5234   -4.0518    0.0000 C   0  0  0  0  0  0  0  0  0  0  0  0
    8.8088   -6.9393    0.0000 N   0  0  0  0  0  0  0  0  0  0  0  0
    8.8088   -5.2893    0.0000 C   0  0  0  0  0  0  0  0  0  0  0  0
    9.5234   -5.7018    0.0000 C   0  0  0  0  0  0  0  0  0  0  0  0
    8.0944   -5.7018    0.0000 C   0  0  0  0  0  0  0  0  0  0  0  0
    9.5234   -3.2268    0.0000 O   0  0  0  0  0  0  0  0  0  0  0  0
    8.0944   -4.0518    0.0000 C   0  0  0  0  0  0  0  0  0  0  0  0
    8.0944   -6.5268    0.0000 C   0  0  0  0  0  0  0  0  0  0  0  0
    9.5234   -6.5268    0.0000 C   0  0  0  0  0  0  0  0  0  0  0  0
    8.8088   -7.7643    0.0000 C   0  0  0  0  0  0  0  0  0  0  0  0
    9.5234   -8.1768    0.0000 C   0  0  0  0  0  0  0  0  0  0  0  0
    9.5234   -9.0018    0.0000 C   0  0  0  0  0  0  0  0  0  0  0  0
   10.2378   -4.4643    0.0000 C   0  0  0  0  0  0  0  0  0  0  0  0
    7.3799   -4.4643    0.0000 C   0  0  0  0  0  0  0  0  0  0  0  0
    8.0944   -3.2268    0.0000 C   0  0  0  0  0  0  0  0  0  0  0  0
   10.2378   -9.4143    0.0000 C   0  0  0  0  0  0  0  0  0  0  0  0
    8.8088   -9.4143    0.0000 C   0  0  0  0  0  0  0  0  0  0  0  0
    6.6654   -4.0518    0.0000 C   0  0  0  0  0  0  0  0  0  0  0  0
    7.3799   -2.8143    0.0000 C   0  0  0  0  0  0  0  0  0  0  0  0
   10.2378  -10.2393    0.0000 C   0  0  0  0  0  0  0  0  0  0  0  0
    8.8088  -10.2393    0.0000 C   0  0  0  0  0  0  0  0  0  0  0  0
    6.6654   -3.2268    0.0000 C   0  0  0  0  0  0  0  0  0  0  0  0
    9.5234  -10.6518    0.0000 C   0  0  0  0  0  0  0  0  0  0  0  0
   10.9523   -4.0518    0.0000 C   0  0  0  0  0  0  0  0  0  0  0  0
  2  1  1  0  0  0  0
  4  1  1  0  0  0  0
  8  1  1  0  0  0  0
  7  2  2  0  0  0  0
 14  2  1  0  0  0  0
  9  3  1  0  0  0  0
 11  3  1  0  0  0  0
 10  3  1  0  0  0  0
  5  4  1  0  0  0  0
  6  4  1  0  0  0  0
 10  5  1  0  0  0  0
  9  6  1  0  0  0  0
 15  8  1  0  0  0  0
 16  8  2  0  0  0  0
 12 11  1  0  0  0  0
 13 12  1  0  0  0  0
 17 13  1  0  0  0  0
 18 13  2  0  0  0  0
 19 15  2  0  0  0  0
 20 16  1  0  0  0  0
 21 17  2  0  0  0  0
 22 18  1  0  0  0  0
 23 19  1  0  0  0  0
 23 20  2  0  0  0  0
 24 21  1  0  0  0  0
 24 22  2  0  0  0  0
 14 25  1  0  0  0  0
M  END
> <ID>
CHEBI:119915

> <NAME>
fentanyl

> <DEFINITION>
A monocarboxylic acid amide resulting from the formal condensation of the aryl amino group of N-phenyl-1-(2-phenylethyl)piperidin-4-amine with propanoic acid.

> <STAR>
3

> <SECONDARY_ID>
CHEBI:310077; CHEBI:5012

> <SYNONYM>
phentanyl; N-phenyl-N-(1-(2-phenylethyl)-4-piperidinyl)propanamide; N-phenethyl-4-(N-propionylanilino)piperidine; N-(1-phenethylpiperidin-4-yl)-N-phenylpropionamide; N-(1-phenethyl-piperidin-4-yl)-N-phenyl-propionamide; N-(1-phenethyl-4-piperidyl)propionanilide; N-(1-phenethyl-4-piperidinyl)-N-phenylpropionamide; 1-phenethyl-4-N-propionylanilinopiperidine; 1-phenethyl-4-(N-phenylpropionamido)piperidine

> <IUPAC_NAME>
N-phenyl-N-[1-(2-phenylethyl)piperidin-4-yl]propanamide

> <INN>
fentanylum; fentanyl; fentanyl; fentanilo

> <BRAND_NAME>
Duragesic

> <FORMULA>
C22H28N2O

> <MASS>
336.47050

> <MONOISOTOPIC_MASS>
336.22016

> <CHARGE>
0

> <SMILES>
CCC(=O)N(C1CCN(CC1)CCc1ccccc1)c1ccccc1

> <INCHI>
InChI=1S/C22H28N2O/c1-2-22(25)24(20-11-7-4-8-12-20)21-14-17-23(18-15-21)16-13-19-9-5-3-6-10-19/h3-12,21H,2,13-18H2,1H3

> <INCHIKEY>
PJMPHNIQZUBGLI-UHFFFAOYSA-N

> <CAS_REGISTRY_NUMBER>
437-38-7

> <REAXYS_REGISTRY_NUMBER>
494484

> <CHEMIDPLUS>
437-38-7

> <DRUGBANK_ACCESSION>
DB00813

> <KEGG_DRUG_ACCESSION>
D00320

> <WIKIPEDIA_ACCESSION>
Fentanyl

> <PUBMED_CITATION>
10987438; 11585443; 14698188; 16621415; 18462178; 18728103; 30176422; 30305277; 10669565

$$$$

Ketcher 01032014042D 1   1.00000     0.00000     0

 23 24  0     1  0            999 V2000
   12.6716  -23.0743    0.0000 O   0  0  0  0  0  0  0  0  0  0  0  0
   11.8054  -23.5742    0.0000 C   0  0  0  0  0  0  0  0  0  0  0  0
   11.8054  -24.5741    0.0000 C   0  0  0  0  0  0  0  0  0  0  0  0
   10.9396  -23.0743    0.0000 O   0  0  0  0  0  0  0  0  0  0  0  0
   10.9396  -25.0742    0.0000 C   0  0  0  0  0  0  0  0  0  0  0  0
   10.0733  -23.5742    0.0000 C   0  0  0  0  0  0  0  0  0  0  0  0
   10.0733  -24.5741    0.0000 C   0  0  0  0  0  0  0  0  0  0  0  0
   12.6716  -25.0742    0.0000 O   0  0  0  0  0  0  0  0  0  0  0  0
   10.9396  -26.0742    0.0000 O   0  0  0  0  0  0  0  0  0  0  0  0
    9.2074  -25.0742    0.0000 O   0  0  0  0  0  0  0  0  0  0  0  0
    9.2074  -23.0743    0.0000 C   0  0  0  0  0  0  0  0  0  0  0  0
    8.3414  -23.5742    0.0000 O   0  0  0  0  0  0  0  0  0  0  0  0
   12.6716  -26.0742    0.0000 C   0  0  0  0  0  0  0  0  0  0  0  0
   13.5377  -26.5741    0.0000 C   0  0  0  0  0  0  0  0  0  0  0  0
   11.8054  -26.5741    0.0000 O   0  0  0  0  0  0  0  0  0  0  0  0
   13.5377  -27.5743    0.0000 C   0  0  0  0  0  0  0  0  0  0  0  0
   11.8054  -27.5744    0.0000 C   0  0  0  0  0  0  0  0  0  0  0  0
   12.6716  -28.0743    0.0000 C   0  0  0  0  0  0  0  0  0  0  0  0
   14.4037  -26.0742    0.0000 O   0  0  0  0  0  0  0  0  0  0  0  0
   14.4037  -28.0742    0.0000 O   0  0  0  0  0  0  0  0  0  0  0  0
   12.6716  -29.0742    0.0000 O   0  0  0  0  0  0  0  0  0  0  0  0
   10.9394  -28.0742    0.0000 C   0  0  0  0  0  0  0  0  0  0  0  0
   10.9394  -29.0742    0.0000 O   0  0  0  0  0  0  0  0  0  0  0  0
  2  3  1  0     0  0
  2  4  1  0     0  0
  3  5  1  0     0  0
  4  6  1  0     0  0
  5  7  1  0     0  0
  6  7  1  0     0  0
  3  8  1  6     0  0
  5  9  1  1     0  0
  7 10  1  6     0  0
  6 11  1  1     0  0
  2  1  1  0     0  0
 11 12  1  0     0  0
 13 14  1  0     0  0
 13 15  1  0     0  0
 14 16  1  0     0  0
 15 17  1  0     0  0
 16 18  1  0     0  0
 17 18  1  0     0  0
 14 19  1  6     0  0
 16 20  1  1     0  0
 18 21  1  6     0  0
 17 22  1  1     0  0
 22 23  1  0     0  0
 13  8  1  1     0  0
M  END
> <ID>
CHEBI:1230

> <NAME>
sophorose

> <DEFINITION>
A glycosylglucose that is D-glucopyranose attached to a β-D-glucopyranosyl unit at position 2 via a glycosidic linkage.

> <STAR>
3

> <SYNONYM>
sophorose; Sophorose; beta-D-glucopyranosyl-(1->2)-D-glucopyranose; beta-D-Glc-(1->2)-D-Glc; 2-O-beta-D-Glucopyranosyl-D-glucose; 2-O-beta-D-glucopyranosyl-D-glucose; 2-O-beta-D-Glucopyranosyl-D-glucopyranose

> <IUPAC_NAME>
2-O-beta-D-glucopyranosyl-D-glucopyranose

> <FORMULA>
C12H22O11

> <MASS>
342.297

> <MONOISOTOPIC_MASS>
342.11621

> <CHARGE>
0

> <SMILES>
OC1[C@@H]([C@H]([C@@H]([C@H](O1)CO)O)O)O[C@H]2[C@@H]([C@H]([C@@H]([C@H](O2)CO)O)O)O

> <INCHI>
InChI=1S/C12H22O11/c13-1-3-6(16)8(18)10(11(20)21-3)23-12-9(19)7(17)5(15)4(2-14)22-12/h3-20H,1-2H2/t3-,4-,5-,6-,7+,8+,9-,10-,11?,12+/m1/s1

> <INCHIKEY>
HIWPGCMGAMJNRG-RTPHMHGBSA-N

> <CAS_REGISTRY_NUMBER>
20429-79-2

> <CHEMIDPLUS>
20429-79-2

> <KEGG_COMPOUND_ACCESSION>
C08250

> <KNAPSACK_ACCESSION>
C00001149

> <METACYC_ACCESSION>
CPD-13242

> <WIKIPEDIA_ACCESSION>
Sophorose

> <PUBMED_CITATION>
14469205; 24655731; 39061

$$$$

Ketcher 05201617232D 1   1.00000     0.00000     0

 27 29  0     0  0            999 V2000
   14.6848   -7.4821    0.0000 C   0  0  0  0  0  0  0  0  0  0  0  0
   15.5285   -6.9760    0.0000 C   0  0  0  0  0  0  0  0  0  0  0  0
   16.3721   -7.4821    0.0000 C   0  0  0  0  0  0  0  0  0  0  0  0
   16.3721   -8.4945    0.0000 C   0  0  0  0  0  0  0  0  0  0  0  0
   15.5285   -9.0007    0.0000 C   0  0  0  0  0  0  0  0  0  0  0  0
   14.6848   -8.4945    0.0000 C   0  0  0  0  0  0  0  0  0  0  0  0
   13.7851   -7.0323    0.0000 S   0  0  0  0  0  0  0  0  0  0  0  0
   14.3475   -6.0199    0.0000 O   0  0  0  0  0  0  0  0  0  0  0  0
   13.3351   -7.8759    0.0000 O   0  0  0  0  0  0  0  0  0  0  0  0
   12.9414   -6.5261    0.0000 N   0  0  0  0  0  0  0  0  0  0  0  0
   12.9414   -5.5137    0.0000 C   0  0  0  0  0  0  0  0  0  0  0  0
   17.2719   -8.9445    0.0000 C   0  0  0  0  0  0  0  0  0  0  0  0
   12.0978   -7.0323    0.0000 C   0  0  0  0  0  0  0  0  0  0  0  0
   11.1980   -6.5261    0.0000 C   0  0  0  0  0  0  0  0  0  0  0  0
   11.1980   -5.5700    0.0000 O   0  0  0  0  0  0  0  0  0  0  0  0
   10.3544   -7.0323    0.0000 N   0  0  0  0  0  0  0  0  0  0  0  0
    8.6671   -8.1008    0.0000 N   0  0  0  0  0  0  0  0  0  0  0  0
    9.5108   -8.5507    0.0000 C   0  0  0  0  0  0  0  0  0  0  0  0
    9.5108   -6.5823    0.0000 C   0  0  0  0  0  0  0  0  0  0  0  0
    8.6109   -7.0885    0.0000 C   0  0  0  0  0  0  0  0  0  0  0  0
   10.3544   -8.0445    0.0000 C   0  0  0  0  0  0  0  0  0  0  0  0
    7.7673   -9.5631    0.0000 N   0  0  0  0  0  0  0  0  0  0  0  0
    6.9237  -10.0692    0.0000 C   0  0  0  0  0  0  0  0  0  0  0  0
    7.7673   -8.6069    0.0000 C   0  0  0  0  0  0  0  0  0  0  0  0
    6.8675   -8.1008    0.0000 C   0  0  0  0  0  0  0  0  0  0  0  0
    6.0239   -9.6193    0.0000 C   0  0  0  0  0  0  0  0  0  0  0  0
    6.0239   -8.6069    0.0000 C   0  0  0  0  0  0  0  0  0  0  0  0
  2  1  2  0     0  0
  6  1  1  0     0  0
  7  1  1  0     0  0
  3  2  1  0     0  0
  4  3  2  0     0  0
  5  4  1  0     0  0
 12  4  1  0     0  0
  6  5  2  0     0  0
  8  7  2  0     0  0
 10  7  1  0     0  0
  9  7  2  0     0  0
 11 10  1  0     0  0
 13 10  1  0     0  0
 14 13  1  0     0  0
 15 14  2  0     0  0
 16 14  1  0     0  0
 19 16  1  0     0  0
 21 16  1  0     0  0
 18 17  1  0     0  0
 20 17  1  0     0  0
 24 17  1  0     0  0
 21 18  1  0     0  0
 20 19  1  0     0  0
 23 22  2  0     0  0
 24 22  1  0     0  0
 26 23  1  0     0  0
 25 24  2  0     0  0
 27 25  1  0     0  0
 27 26  2  0     0  0
M  END
> <ID>
CHEBI:131994

> <NAME>
N,4-dimethyl-N-{2-oxo-2-[4-(pyridin-2-yl)piperazin-1-yl]ethyl}benzenesulfonamide

> <DEFINITION>
A sulfonamide in which the nitrogen carries methyl and 2-oxo-2-[4-(pyridin-2-yl)piperazin-1-yl substituents and the sulfonyl a p-tolyl group.

> <STAR>
3

> <SYNONYM>
N,4-dimethyl-N-{2-oxo-2-[4-(pyridin-2-yl)piperazin-1-yl]ethyl}benzene-1-sulfonamide; N,4-dimethyl-N-[2-oxo-2-[4-(2-pyridinyl)-1-piperazinyl]ethyl]benzenesulfonamide; ML342

> <IUPAC_NAME>
N,4-dimethyl-N-{2-oxo-2-[4-(pyridin-2-yl)piperazin-1-yl]ethyl}benzene-1-sulfonamide

> <FORMULA>
C19H24N4O3S

> <MASS>
388.486

> <MONOISOTOPIC_MASS>
388.15691

> <CHARGE>
0

> <SMILES>
C1(=CC=C(C=C1)C)S(=O)(N(C)CC(=O)N2CCN(CC2)C=3N=CC=CC3)=O

> <INCHI>
InChI=1S/C19H24N4O3S/c1-16-6-8-17(9-7-16)27(25,26)21(2)15-19(24)23-13-11-22(12-14-23)18-5-3-4-10-20-18/h3-10H,11-15H2,1-2H3

> <INCHIKEY>
AVFZKEVCVCSCJE-UHFFFAOYSA-N

> <PUBMED_CITATION>
26442911

$$$$

Ketcher 05201617552D 1   1.00000     0.00000     0

 25 27  0     0  0            999 V2000
    8.8299  -18.3191    0.0000 C   0  0  0  0  0  0  0  0  0  0  0  0
    8.8299  -19.3191    0.0000 C   0  0  0  0  0  0  0  0  0  0  0  0
    7.9638  -17.8191    0.0000 C   0  0  0  0  0  0  0  0  0  0  0  0
    7.9638  -19.8191    0.0000 N   0  0  0  0  0  0  0  0  0  0  0  0
    7.0978  -18.3191    0.0000 C   0  0  0  0  0  0  0  0  0  0  0  0
    7.0978  -19.3191    0.0000 C   0  0  0  0  0  0  0  0  0  0  0  0
    9.6959  -17.8191    0.0000 C   0  0  0  0  0  0  0  0  0  0  0  0
    9.6959  -16.8191    0.0000 C   0  0  0  0  0  0  0  0  0  0  0  0
   10.5620  -18.3191    0.0000 N   0  0  0  0  0  0  0  0  0  0  0  0
   10.5620  -16.3191    0.0000 C   0  0  0  0  0  0  0  0  0  0  0  0
   11.4280  -17.8191    0.0000 C   0  0  0  0  0  0  0  0  0  0  0  0
   11.4280  -16.8191    0.0000 C   0  0  0  0  0  0  0  0  0  0  0  0
   10.5620  -19.3191    0.0000 S   0  0  0  0  0  0  0  0  0  0  0  0
    9.5620  -19.3191    0.0000 O   0  0  0  0  0  0  0  0  0  0  0  0
   11.5620  -19.3191    0.0000 O   0  0  0  0  0  0  0  0  0  0  0  0
   10.5620  -20.3191    0.0000 C   0  0  0  0  0  0  0  0  0  0  0  0
   11.4281  -20.8191    0.0000 C   0  0  0  0  0  0  0  0  0  0  0  0
   11.4281  -21.8191    0.0000 C   0  0  0  0  0  0  0  0  0  0  0  0
   10.5620  -22.3191    0.0000 C   0  0  0  0  0  0  0  0  0  0  0  0
    9.6960  -20.8191    0.0000 C   0  0  0  0  0  0  0  0  0  0  0  0
    9.6960  -21.8191    0.0000 C   0  0  0  0  0  0  0  0  0  0  0  0
   10.5620  -23.3191    0.0000 N   0  0  0  0  0  0  0  0  0  0  0  0
   11.4280  -23.8192    0.0000 C   0  0  0  0  0  0  0  0  0  0  0  0
   12.2940  -23.3192    0.0000 O   0  0  0  0  0  0  0  0  0  0  0  0
   11.4280  -24.8192    0.0000 C   0  0  0  0  0  0  0  0  0  0  0  0
  2  1  1  0     0  0
  3  1  2  0     0  0
  4  2  2  0     0  0
  5  3  1  0     0  0
  6  4  1  0     0  0
  6  5  2  0     0  0
  8  7  1  0     0  0
  9  7  1  0     0  0
 10  8  1  0     0  0
 11  9  1  0     0  0
 12 10  1  0     0  0
 12 11  1  0     0  0
  1  7  1  0     0  0
 14 13  2  0     0  0
 15 13  2  0     0  0
 16 13  1  0     0  0
  9 13  1  0     0  0
 18 17  1  0     0  0
 16 17  2  0     0  0
 19 18  2  0     0  0
 20 16  1  0     0  0
 21 19  1  0     0  0
 21 20  2  0     0  0
 19 22  1  0     0  0
 24 23  2  0     0  0
 25 23  1  0     0  0
 22 23  1  0     0  0
M  END
> <ID>
CHEBI:131995

> <NAME>
N-(4-{[2-(pyridin-3-yl)piperidin-1-yl]sulfonyl}phenyl)acetamide

> <DEFINITION>
A sulfonamide in which the nitrogen is the piperidinyl nitrogen of a 2-(pyridin-3-yl)piperidin-1-yl group and the sulfonyl sulfur carries a 4-acetamidophenyl substituent.

> <STAR>
3

> <SYNONYM>
N-(4-{[2-(pyridin-3-yl)piperidin-1-yl]sulfonyl}phenyl)acetamide

> <IUPAC_NAME>
N-{4-[2-(pyridin-3-yl)piperidine-1-sulfonyl]phenyl}acetamide

> <FORMULA>
C18H21N3O3S

> <MASS>
359.444

> <MONOISOTOPIC_MASS>
359.13036

> <CHARGE>
0

> <SMILES>
C=1(C=NC=CC1)C2CCCCN2S(=O)(=O)C3=CC=C(C=C3)NC(=O)C

> <INCHI>
InChI=1S/C18H21N3O3S/c1-14(22)20-16-7-9-17(10-8-16)25(23,24)21-12-3-2-6-18(21)15-5-4-11-19-13-15/h4-5,7-11,13,18H,2-3,6,12H2,1H3,(H,20,22)

> <INCHIKEY>
RIKLLPBLRCPXRV-UHFFFAOYSA-N

> <PUBMED_CITATION>
26442911

$$$$

Ketcher 05201618152D 1   1.00000     0.00000     0

 26 27  0     0  0            999 V2000
   18.2877  -30.2724    0.0000 C   0  0  0  0  0  0  0  0  0  0  0  0
   19.1340  -29.7647    0.0000 C   0  0  0  0  0  0  0  0  0  0  0  0
   19.9804  -30.2724    0.0000 C   0  0  0  0  0  0  0  0  0  0  0  0
   19.9804  -31.2882    0.0000 C   0  0  0  0  0  0  0  0  0  0  0  0
   19.1340  -31.7960    0.0000 C   0  0  0  0  0  0  0  0  0  0  0  0
   18.2877  -31.2882    0.0000 C   0  0  0  0  0  0  0  0  0  0  0  0
   17.3850  -29.8212    0.0000 S   0  0  0  0  0  0  0  0  0  0  0  0
   17.9493  -28.8055    0.0000 O   0  0  0  0  0  0  0  0  0  0  0  0
   16.9335  -30.6675    0.0000 O   0  0  0  0  0  0  0  0  0  0  0  0
   16.5386  -29.3133    0.0000 N   0  0  0  0  0  0  0  0  0  0  0  0
   16.5386  -28.2977    0.0000 C   0  0  0  0  0  0  0  0  0  0  0  0
   20.8831  -31.7396    0.0000 Cl  0  0  0  0  0  0  0  0  0  0  0  0
   15.6923  -29.8212    0.0000 C   0  0  0  0  0  0  0  0  0  0  0  0
   14.7895  -29.3133    0.0000 C   0  0  0  0  0  0  0  0  0  0  0  0
   14.7895  -28.3542    0.0000 O   0  0  0  0  0  0  0  0  0  0  0  0
   13.9432  -29.8212    0.0000 N   0  0  0  0  0  0  0  0  0  0  0  0
   12.2505  -30.8931    0.0000 N   0  0  0  0  0  0  0  0  0  0  0  0
   13.0969  -31.3445    0.0000 C   0  0  0  0  0  0  0  0  0  0  0  0
   13.0969  -29.3697    0.0000 C   0  0  0  0  0  0  0  0  0  0  0  0
   12.1941  -29.8776    0.0000 C   0  0  0  0  0  0  0  0  0  0  0  0
   13.9432  -30.8367    0.0000 C   0  0  0  0  0  0  0  0  0  0  0  0
   11.4185  -31.4243    0.0000 C   0  0  0  0  0  0  0  0  0  0  0  0
   11.4625  -32.4103    0.0000 O   0  0  0  0  0  0  0  0  0  0  0  0
   10.5425  -30.9693    0.0000 O   0  0  0  0  0  0  0  0  0  0  0  0
   10.4986  -29.9832    0.0000 C   0  0  0  0  0  0  0  0  0  0  0  0
    9.6226  -29.5283    0.0000 C   0  0  0  0  0  0  0  0  0  0  0  0
  2  1  2  0     0  0
  6  1  1  0     0  0
  7  1  1  0     0  0
  3  2  1  0     0  0
  4  3  2  0     0  0
  5  4  1  0     0  0
 12  4  1  0     0  0
  6  5  2  0     0  0
  8  7  2  0     0  0
 10  7  1  0     0  0
  9  7  2  0     0  0
 11 10  1  0     0  0
 13 10  1  0     0  0
 14 13  1  0     0  0
 15 14  2  0     0  0
 16 14  1  0     0  0
 19 16  1  0     0  0
 21 16  1  0     0  0
 18 17  1  0     0  0
 20 17  1  0     0  0
 21 18  1  0     0  0
 20 19  1  0     0  0
 23 22  2  0     0  0
 24 22  1  0     0  0
 17 22  1  0     0  0
 24 25  1  0     0  0
 25 26  1  0     0  0
M  END
> <ID>
CHEBI:131996

> <NAME>
ethyl 4-{N-[(4-chlorophenyl)sulfonyl]-N-methylglycyl}piperazine-1-carboxylate

> <DEFINITION>
A sulfonamide in which the nitrogen carries methyl and 2-[4-(ethoxycarbonyl)piperazin-1-yl]-2-oxoethyl substituents and the sulfonyl a 4-chlorophenyl group.

> <STAR>
3

> <SYNONYM>
ethyl 4-[2-[[(4-chlorophenyl)sulfonyl]methylamino]acetyl]-1-piperazinecarboxylate; 4-[2-[[(4-chlorophenyl)sulfonyl]methylamino]acetyl]-1-piperazinecarboxylic acid, ethyl ester

> <IUPAC_NAME>
ethyl 4-[N-(4-chlorobenzene-1-sulfonyl)-N-methylglycyl]piperazine-1-carboxylate

> <FORMULA>
C16H22ClN3O5S

> <MASS>
403.883

> <MONOISOTOPIC_MASS>
403.09687

> <CHARGE>
0

> <SMILES>
C1(=CC=C(C=C1)Cl)S(=O)(N(C)CC(=O)N2CCN(CC2)C(=O)OCC)=O

> <INCHI>
InChI=1S/C16H22ClN3O5S/c1-3-25-16(22)20-10-8-19(9-11-20)15(21)12-18(2)26(23,24)14-6-4-13(17)5-7-14/h4-7H,3,8-12H2,1-2H3

> <INCHIKEY>
GVRRKYYMISVYGI-UHFFFAOYSA-N

> <PUBMED_CITATION>
26442911

$$$$

Ketcher 05201618302D 1   1.00000     0.00000     0

 28 31  0     0  0            999 V2000
   21.9753  -50.5124    0.0000 C   0  0  0  0  0  0  0  0  0  0  0  0
   22.8245  -50.0029    0.0000 C   0  0  0  0  0  0  0  0  0  0  0  0
   23.6736  -50.5124    0.0000 C   0  0  0  0  0  0  0  0  0  0  0  0
   23.6736  -51.5314    0.0000 C   0  0  0  0  0  0  0  0  0  0  0  0
   22.8245  -52.0410    0.0000 C   0  0  0  0  0  0  0  0  0  0  0  0
   21.9753  -51.5314    0.0000 C   0  0  0  0  0  0  0  0  0  0  0  0
   21.0697  -50.0596    0.0000 S   0  0  0  0  0  0  0  0  0  0  0  0
   21.6358  -49.0406    0.0000 O   0  0  0  0  0  0  0  0  0  0  0  0
   20.6167  -50.9088    0.0000 O   0  0  0  0  0  0  0  0  0  0  0  0
   20.2204  -49.5501    0.0000 N   0  0  0  0  0  0  0  0  0  0  0  0
   24.5793  -51.9844    0.0000 N   0  0  0  0  0  0  0  0  0  0  0  0
   18.5220  -48.4746    0.0000 C   0  0  0  0  0  0  0  0  0  0  0  0
   19.3713  -48.0217    0.0000 C   0  0  0  0  0  0  0  0  0  0  0  0
   19.3713  -50.0031    0.0000 C   0  0  0  0  0  0  0  0  0  0  0  0
   18.4655  -49.4935    0.0000 C   0  0  0  0  0  0  0  0  0  0  0  0
   20.2204  -48.5312    0.0000 C   0  0  0  0  0  0  0  0  0  0  0  0
   19.3602  -50.9933    0.0000 C   0  0  0  0  0  0  0  0  0  0  0  0
   18.5526  -51.5664    0.0000 N   0  0  0  0  0  0  0  0  0  0  0  0
   20.1548  -51.5843    0.0000 S   0  0  0  0  0  0  0  0  0  0  0  0
   18.8481  -52.5115    0.0000 C   0  0  0  0  0  0  0  0  0  0  0  0
   19.8382  -52.5227    0.0000 C   0  0  0  0  0  0  0  0  0  0  0  0
   18.3433  -53.3634    0.0000 C   0  0  0  0  0  0  0  0  0  0  0  0
   18.8288  -54.2265    0.0000 C   0  0  0  0  0  0  0  0  0  0  0  0
   20.3236  -53.3857    0.0000 C   0  0  0  0  0  0  0  0  0  0  0  0
   19.8189  -54.2376    0.0000 C   0  0  0  0  0  0  0  0  0  0  0  0
   24.6386  -52.9729    0.0000 C   0  0  0  0  0  0  0  0  0  0  0  0
   25.5243  -53.4158    0.0000 O   0  0  0  0  0  0  0  0  0  0  0  0
   23.8121  -53.5184    0.0000 C   0  0  0  0  0  0  0  0  0  0  0  0
  2  1  2  0     0  0
  6  1  1  0     0  0
  7  1  1  0     0  0
  3  2  1  0     0  0
  4  3  2  0     0  0
  5  4  1  0     0  0
 11  4  1  0     0  0
  6  5  2  0     0  0
  8  7  2  0     0  0
 10  7  1  0     0  0
  9  7  2  0     0  0
 14 10  1  0     0  0
 16 10  1  0     0  0
 13 12  1  0     0  0
 15 12  1  0     0  0
 16 13  1  0     0  0
 15 14  1  0     0  0
 18 17  2  0     0  0
 19 17  1  0     0  0
 20 18  1  0     0  0
 21 19  1  0     0  0
 14 17  1  0     0  0
 22 20  1  0     0  0
 21 20  2  0     0  0
 23 22  2  0     0  0
 24 21  1  0     0  0
 25 23  1  0     0  0
 25 24  2  0     0  0
 27 26  2  0     0  0
 28 26  1  0     0  0
 11 26  1  0     0  0
M  END
> <ID>
CHEBI:131997

> <NAME>
N-(4-{[2-(1,3-benzothiazol-2-yl)piperidin-1-yl]sulfonyl}phenyl)acetamide

> <DEFINITION>
A sulfonamide in which the nitrogen is the piperidinyl nitrogen of a 2-(1,3-benzothiazol-2-yl)piperidin-1-yl group and the sulfonyl sulfur carries a 4-acetamidophenyl substituent.

> <STAR>
3

> <SYNONYM>
N-[4-[[2-(2-benzothiazolyl)-1-piperidinyl]sulfonyl]phenyl]acetamide

> <IUPAC_NAME>
N-{4-[2-(1,3-benzothiazol-2-yl)piperidine-1-sulfonyl]phenyl}acetamide

> <FORMULA>
C20H21N3O3S2

> <MASS>
415.532

> <MONOISOTOPIC_MASS>
415.10243

> <CHARGE>
0

> <SMILES>
C1(=CC=C(C=C1)NC(=O)C)S(=O)(N2C(CCCC2)C3=NC=4C=CC=CC4S3)=O

> <INCHI>
InChI=1S/C20H21N3O3S2/c1-14(24)21-15-9-11-16(12-10-15)28(25,26)23-13-5-4-7-18(23)20-22-17-6-2-3-8-19(17)27-20/h2-3,6,8-12,18H,4-5,7,13H2,1H3,(H,21,24)

> <INCHIKEY>
FFQDLQUGGMXGIS-UHFFFAOYSA-N

> <PUBMED_CITATION>
26442911

$$$$

Ketcher 07211617282D 1   1.00000     0.00000     0

 14 15  0     0  0            999 V2000
    8.3423   -5.1368    0.0000 C   0  0  0  0  0  0  0  0  0  0  0  0
    8.3423   -6.1386    0.0000 C   0  0  0  0  0  0  0  0  0  0  0  0
    9.1939   -4.6359    0.0000 N   0  0  0  0  0  0  0  0  0  0  0  0
    7.4407   -4.6359    0.0000 C   0  0  0  0  0  0  0  0  0  0  0  0
    9.1939   -6.6396    0.0000 N   0  0  0  0  0  0  0  0  0  0  0  0
    7.4907   -6.6897    0.0000 C   0  0  0  0  0  0  0  0  0  0  0  0
   10.0455   -5.1368    0.0000 C   0  0  0  0  0  0  0  0  0  0  0  0
    6.5891   -5.1368    0.0000 C   0  0  0  0  0  0  0  0  0  0  0  0
   10.0455   -6.1386    0.0000 C   0  0  0  0  0  0  0  0  0  0  0  0
    6.5891   -6.1386    0.0000 C   0  0  0  0  0  0  0  0  0  0  0  0
   10.9031   -4.6463    0.0000 C   0  0  0  0  0  0  0  0  0  0  0  0
    5.7274   -6.6219    0.0000 C   0  0  0  0  0  0  0  0  0  0  0  0
    5.7151   -7.6098    0.0000 O   0  0  0  0  0  0  0  0  0  0  0  0
    4.8779   -6.1172    0.0000 O   0  0  0  0  0  0  0  0  0  0  0  0
  1  2  2  0     0  0
  1  3  1  0     0  0
  1  4  1  0     0  0
  2  5  1  0     0  0
  2  6  1  0     0  0
  3  7  2  0     0  0
  4  8  2  0     0  0
  5  9  2  0     0  0
  6 10  2  0     0  0
  7  9  1  0     0  0
  8 10  1  0     0  0
  7 11  1  0     0  0
 13 12  2  0     0  0
 14 12  1  0     0  0
 10 12  1  0     0  0
M  END
> <ID>
CHEBI:132798

> <NAME>
2-methylquinoxaline-6-carboxylic acid

> <DEFINITION>
A quinoxaline derivative in which the quinoxaline (1,4-naphthyridine) skeleton is substituted with a carboxy function at C-6 and a methyl group at C-2.

> <STAR>
3

> <SYNONYM>
6-carboxy-2-methylquinoxaline; 6-carboxy-2-methyl-1,4-naphthyridine; 2-methyl-1,4-naphthyridine-6-carboxylic acid

> <IUPAC_NAME>
2-methylquinoxaline-6-carboxylic acid

> <FORMULA>
C10H8N2O2

> <MASS>
188.183

> <MONOISOTOPIC_MASS>
188.05858

> <CHARGE>
0

> <SMILES>
C12=C(N=CC(=N1)C)C=C(C=C2)C(=O)O

> <INCHI>
InChI=1S/C10H8N2O2/c1-6-5-11-9-4-7(10(13)14)2-3-8(9)12-6/h2-5H,1H3,(H,13,14)

> <INCHIKEY>
HNVISYCQYHXXLI-UHFFFAOYSA-N

> <REAXYS_REGISTRY_NUMBER>
10250590

> <PUBMED_CITATION>
16309903; 16406213

$$$$

Ketcher 07251614552D 1   1.00000     0.00000     0

 12 13  0     0  0            999 V2000
   21.1830  -15.3187    0.0000 C   0  0  0  0  0  0  0  0  0  0  0  0
   21.1830  -16.3187    0.0000 C   0  0  0  0  0  0  0  0  0  0  0  0
   22.0331  -14.8187    0.0000 N   0  0  0  0  0  0  0  0  0  0  0  0
   20.2831  -14.8187    0.0000 C   0  0  0  0  0  0  0  0  0  0  0  0
   22.0331  -16.8188    0.0000 N   0  0  0  0  0  0  0  0  0  0  0  0
   20.3330  -16.8688    0.0000 C   0  0  0  0  0  0  0  0  0  0  0  0
   22.8831  -15.3187    0.0000 C   0  0  0  0  0  0  0  0  0  0  0  0
   19.4331  -15.3187    0.0000 C   0  0  0  0  0  0  0  0  0  0  0  0
   22.8831  -16.3187    0.0000 C   0  0  0  0  0  0  0  0  0  0  0  0
   19.4331  -16.3187    0.0000 C   0  0  0  0  0  0  0  0  0  0  0  0
   23.7391  -14.8291    0.0000 C   0  0  0  0  0  0  0  0  0  0  0  0
   23.7391  -16.8083    0.0000 C   0  0  0  0  0  0  0  0  0  0  0  0
  1  2  2  0     0  0
  1  3  1  0     0  0
  1  4  1  0     0  0
  2  5  1  0     0  0
  2  6  1  0     0  0
  3  7  2  0     0  0
  4  8  2  0     0  0
  5  9  2  0     0  0
  6 10  2  0     0  0
  7  9  1  0     0  0
  8 10  1  0     0  0
  7 11  1  0     0  0
  9 12  1  0     0  0
M  END
> <ID>
CHEBI:132810

> <NAME>
2,3-dimethylquinoxaline

> <DEFINITION>
A quinoxaline derivative in which the quinoxaline (1,4-naphthyridine) skeleton is substituted with a methyl group at each of positions C-2 and C-3.

> <STAR>
3

> <SYNONYM>
2,3-dimethyl-1,4-naphthyridine

> <IUPAC_NAME>
2,3-dimethylquinoxaline

> <FORMULA>
C10H10N2

> <MASS>
158.200

> <MONOISOTOPIC_MASS>
158.08440

> <CHARGE>
0

> <SMILES>
C12=C(N=C(C(=N1)C)C)C=CC=C2

> <INCHI>
InChI=1S/C10H10N2/c1-7-8(2)12-10-6-4-3-5-9(10)11-7/h3-6H,1-2H3

> <INCHIKEY>
FKHNZQFCDGOQGV-UHFFFAOYSA-N

> <CAS_REGISTRY_NUMBER>
2379-55-7

> <REAXYS_REGISTRY_NUMBER>
114832

> <CHEMIDPLUS>
2379-55-7

> <PUBMED_CITATION>
1175697; 16406213; 17103484

$$$$

Ketcher 07251616322D 1   1.00000     0.00000     0

 11 12  0     0  0            999 V2000
   10.4040   -4.7548    0.0000 C   0  0  0  0  0  0  0  0  0  0  0  0
   10.4040   -5.7537    0.0000 C   0  0  0  0  0  0  0  0  0  0  0  0
   11.2531   -4.2554    0.0000 N   0  0  0  0  0  0  0  0  0  0  0  0
    9.5051   -4.2554    0.0000 C   0  0  0  0  0  0  0  0  0  0  0  0
   11.2531   -6.2532    0.0000 N   0  0  0  0  0  0  0  0  0  0  0  0
    9.5549   -6.3032    0.0000 C   0  0  0  0  0  0  0  0  0  0  0  0
   12.1021   -4.7548    0.0000 C   0  0  0  0  0  0  0  0  0  0  0  0
    8.6561   -4.7548    0.0000 C   0  0  0  0  0  0  0  0  0  0  0  0
   12.1021   -5.7537    0.0000 C   0  0  0  0  0  0  0  0  0  0  0  0
    8.6561   -5.7537    0.0000 C   0  0  0  0  0  0  0  0  0  0  0  0
   12.9571   -4.2658    0.0000 C   0  0  0  0  0  0  0  0  0  0  0  0
  1  2  2  0     0  0
  1  3  1  0     0  0
  1  4  1  0     0  0
  2  5  1  0     0  0
  2  6  1  0     0  0
  3  7  2  0     0  0
  4  8  2  0     0  0
  5  9  2  0     0  0
  6 10  2  0     0  0
  7  9  1  0     0  0
  8 10  1  0     0  0
  7 11  1  0     0  0
M  END
> <ID>
CHEBI:132812

> <NAME>
2-methylquinoxaline

> <DEFINITION>
A quinoxaline derivative in which the quinoxaline (1,4-naphthyridine) skeleton is substituted at C-2 with a methyl group.

> <STAR>
3

> <SYNONYM>
2-methyl-1,4-naphthyridine

> <IUPAC_NAME>
2-methylquinoxaline

> <FORMULA>
C9H8N2

> <MASS>
144.174

> <MONOISOTOPIC_MASS>
144.06875

> <CHARGE>
0

> <SMILES>
C12=C(N=CC(=N1)C)C=CC=C2

> <INCHI>
InChI=1S/C9H8N2/c1-7-6-10-8-4-2-3-5-9(8)11-7/h2-6H,1H3

> <INCHIKEY>
ALHUXMDEZNLFTA-UHFFFAOYSA-N

> <CAS_REGISTRY_NUMBER>
7251-61-8

> <REAXYS_REGISTRY_NUMBER>
113307

> <CHEMIDPLUS>
7251-61-8

> <PUBMED_CITATION>
16406213

$$$$

Ketcher 07251617062D 1   1.00000     0.00000     0

 48 51  0     1  0            999 V2000
    4.4667  -15.4244    0.0000 O   0  0  0  0  0  0  0  0  0  0  0  0
   11.3910  -11.2700    0.0000 O   0  0  0  0  0  0  0  0  0  0  0  0
   11.3910  -10.3581    0.0000 C   0  0  0  0  0  0  0  0  0  0  0  0
   10.5804   -9.8515    0.0000 C   0  0  0  0  0  0  0  0  0  0  0  0
   12.2690   -9.8515    0.0000 C   0  0  0  0  0  0  0  0  0  0  0  0
   10.5804   -8.8381    0.0000 C   0  0  0  0  0  0  0  0  0  0  0  0
    9.7021  -10.3244    0.0000 O   0  0  0  0  0  0  0  0  0  0  0  0
   12.2690   -8.8381    0.0000 C   0  0  0  0  0  0  0  0  0  0  0  0
   13.1135  -10.3581    0.0000 O   0  0  0  0  0  0  0  0  0  0  0  0
   11.3910   -8.3654    0.0000 O   0  0  0  0  0  0  0  0  0  0  0  0
    9.7021   -8.3654    0.0000 C   0  0  0  0  0  0  0  0  0  0  0  0
    8.8238  -10.8647    0.0000 C   0  0  0  0  0  0  0  0  0  0  0  0
   13.1135   -8.3654    0.0000 O   0  0  0  0  0  0  0  0  0  0  0  0
    8.8238  -11.8780    0.0000 C   0  0  0  0  0  0  0  0  0  0  0  0
    7.9458  -10.3581    0.0000 O   0  0  0  0  0  0  0  0  0  0  0  0
   13.9579   -7.8587    0.0000 C   0  0  0  0  0  0  0  0  0  0  0  0
    7.9458  -12.3846    0.0000 C   0  0  0  0  0  0  0  0  0  0  0  0
    9.7021  -12.3846    0.0000 N   0  0  0  0  0  0  0  0  0  0  0  0
    7.0677  -10.8647    0.0000 C   0  0  0  0  0  0  0  0  0  0  0  0
   13.9579   -6.9129    0.0000 C   0  0  0  0  0  0  0  0  0  0  0  0
   14.8362   -8.3654    0.0000 C   0  0  0  0  0  0  0  0  0  0  0  0
    7.0677  -11.8780    0.0000 C   0  0  0  0  0  0  0  0  0  0  0  0
    7.9458  -13.3642    0.0000 O   0  0  0  0  0  0  0  0  0  0  0  0
    9.7021  -13.3979    0.0000 C   0  0  0  0  0  0  0  0  0  0  0  0
    6.1894  -10.3918    0.0000 C   0  0  0  0  0  0  0  0  0  0  0  0
   14.8362   -6.4063    0.0000 O   0  0  0  0  0  0  0  0  0  0  0  0
   13.1135   -6.4063    0.0000 C   0  0  0  0  0  0  0  0  0  0  0  0
   15.6805   -7.8587    0.0000 C   0  0  0  0  0  0  0  0  0  0  0  0
   14.8023   -9.3449    0.0000 O   0  0  0  0  0  0  0  0  0  0  0  0
    6.1894  -12.3846    0.0000 O   0  0  0  0  0  0  0  0  0  0  0  0
   10.5804  -13.9045    0.0000 C   0  0  0  0  0  0  0  0  0  0  0  0
    8.8238  -13.9045    0.0000 O   0  0  0  0  0  0  0  0  0  0  0  0
   15.6805   -6.9129    0.0000 C   0  0  0  0  0  0  0  0  0  0  0  0
   16.5587   -8.3654    0.0000 O   0  0  0  0  0  0  0  0  0  0  0  0
   16.5587   -6.4063    0.0000 O   0  0  0  0  0  0  0  0  0  0  0  0
   12.2354   -6.8792    0.0000 O   0  0  0  0  0  0  0  0  0  0  0  0
    8.8238   -8.9058    0.0000 O   0  0  0  0  0  0  0  0  0  0  0  0
    5.3450  -10.9323    0.0000 O   0  0  0  0  0  0  0  0  0  0  0  0
    7.0677  -13.8708    0.0000 C   0  0  0  0  0  0  0  0  0  0  0  0
    6.1894  -13.3642    0.0000 O   0  0  0  0  0  0  0  0  0  0  0  0
    5.3114  -13.8708    0.0000 C   0  0  0  0  0  0  0  0  0  0  0  0
    5.3114  -14.8842    0.0000 C   0  0  0  0  0  0  0  0  0  0  0  0
    6.1894  -15.3908    0.0000 C   0  0  0  0  0  0  0  0  0  0  0  0
    7.0677  -14.8842    0.0000 C   0  0  0  0  0  0  0  0  0  0  0  0
    4.4331  -13.3642    0.0000 C   0  0  0  0  0  0  0  0  0  0  0  0
    6.1894  -16.4041    0.0000 O   0  0  0  0  0  0  0  0  0  0  0  0
    7.9458  -15.3908    0.0000 O   0  0  0  0  0  0  0  0  0  0  0  0
    3.5556  -13.8710    0.0000 O   0  0  0  0  0  0  0  0  0  0  0  0
  3  2  1  1     0  0
  3  4  1  0     0  0
  3  5  1  0     0  0
  4  6  1  0     0  0
  4  7  1  1     0  0
  5  8  1  0     0  0
  5  9  1  6     0  0
  6 10  1  0     0  0
  6 11  1  1     0  0
 12  7  1  1     0  0
  8 13  1  1     0  0
 12 14  1  0     0  0
 12 15  1  0     0  0
 16 13  1  6     0  0
 14 17  1  0     0  0
 14 18  1  6     0  0
 15 19  1  0     0  0
 16 20  1  0     0  0
 16 21  1  0     0  0
 17 22  1  0     0  0
 17 23  1  1     0  0
 18 24  1  0     0  0
 19 25  1  1     0  0
 20 26  1  0     0  0
 20 27  1  1     0  0
 21 28  1  0     0  0
 21 29  1  1     0  0
 22 30  1  1     0  0
 24 31  1  0     0  0
 24 32  2  0     0  0
 26 33  1  0     0  0
 28 34  1  6     0  0
 33 35  1  0     0  0
  8 10  1  0     0  0
 19 22  1  0     0  0
 28 33  1  0     0  0
 27 36  1  0     0  0
 11 37  1  0     0  0
 25 38  1  0     0  0
 39 23  1  1     0  0
 39 40  1  0     0  0
 40 41  1  0     0  0
 41 42  1  0     0  0
 42 43  1  0     0  0
 43 44  1  0     0  0
 39 44  1  0     0  0
 41 45  1  1     0  0
 42  1  1  1     0  0
 43 46  1  1     0  0
 44 47  1  6     0  0
 45 48  1  0     0  0
M  END
> <ID>
CHEBI:132814

> <NAME>
beta-D-Galp-(1->3)-beta-D-GalpNAc-(1->4)-beta-D-Galp-(1->4)-D-Glcp

> <DEFINITION>
An amino tetrasaccharide consisting of β-D-galactose, N-acetyl-β-D-galactosamine, β-D-galactose and D-glucose residues in a linear (1→3), (1→4), (1→4) sequence.

> <STAR>
3

> <SYNONYM>
Galbeta1-3GalNAcbeta1-4Galbeta1-4Glc; beta-D-galactosyl-(1->3)-N-acetyl-beta-D-galactosaminyl-(1->4)-beta-D-galactosyl-(1->4)-D-glucose; beta-D-galactosyl-(1-3)-N-acetyl-beta-D-galactosaminyl-(1-4)-beta-D-galactosyl-(1-4)-D-glucose; beta-D-Gal-(1->3)-beta-D-GalNAc-(1->4)-beta-D-Gal-(1->4)-D-Glc

> <IUPAC_NAME>
beta-D-galactopyranosyl-(1->3)-2-acetamido-2-deoxy-beta-D-galactopyranosyl-(1->4)-beta-D-galactopyranosyl-(1->4)-D-glucopyranose

> <FORMULA>
C26H45NO21

> <MASS>
707.631

> <MONOISOTOPIC_MASS>
707.24841

> <CHARGE>
0

> <SMILES>
O[C@H]1[C@H](O[C@@H](O[C@@H]2[C@H]([C@H](O[C@@H]3[C@H](O)[C@H]([C@H](O[C@@H]4[C@H](OC(O)[C@@H]([C@H]4O)O)CO)O[C@@H]3CO)O)O[C@H](CO)[C@@H]2O)NC(C)=O)[C@@H]([C@H]1O)O)CO

> <INCHI>
InChI=1S/C26H45NO21/c1-6(32)27-11-22(48-25-18(39)14(35)12(33)7(2-28)44-25)13(34)8(3-29)43-24(11)46-21-10(5-31)45-26(19(40)16(21)37)47-20-9(4-30)42-23(41)17(38)15(20)36/h7-26,28-31,33-41H,2-5H2,1H3,(H,27,32)/t7-,8-,9-,10-,11-,12+,13+,14+,15-,16-,17-,18-,19-,20-,21+,22-,23?,24+,25+,26+/m1/s1

> <INCHIKEY>
HCXIEPLIUZXCMD-NLFJORDCSA-N

> <PUBMED_CITATION>
16406213

$$$$

Ketcher 09261616432D 1   1.00000     0.00000     0

 26 26  0     1  0            999 V2000
    9.2474   -8.6393    0.0000 O   0  0  0  0  0  0  0  0  0  0  0  0
   10.1151   -9.1403    0.0000 C   0  0  0  0  0  0  0  0  0  0  0  0
   10.9827   -8.6393    0.0000 C   0  0  0  0  0  0  0  0  0  0  0  0
   11.8506   -9.1403    0.0000 C   0  0  0  0  0  0  0  0  0  0  0  0
   10.9827   -7.6373    0.0000 O   0  0  0  0  0  0  0  0  0  0  0  0
   12.7181   -8.6393    0.0000 O   0  0  0  0  0  0  0  0  0  0  0  0
   13.5859   -9.1403    0.0000 C   0  0  0  0  0  0  0  0  0  0  0  0
    8.3972   -9.1205    0.0000 C   0  0  0  0  0  0  0  0  0  0  0  0
    7.5335   -8.6064    0.0000 O   0  0  0  0  0  0  0  0  0  0  0  0
    8.3640  -10.1223    0.0000 C   0  0  0  0  0  0  0  0  0  0  0  0
    6.6637   -9.0809    0.0000 C   0  0  0  0  0  0  0  0  0  0  0  0
    7.4875  -10.5905    0.0000 C   0  0  0  0  0  0  0  0  0  0  0  0
    6.6437  -10.0826    0.0000 C   0  0  0  0  0  0  0  0  0  0  0  0
    5.8133   -8.5668    0.0000 C   0  0  0  0  0  0  0  0  0  0  0  0
    7.4612  -11.5921    0.0000 O   0  0  0  0  0  0  0  0  0  0  0  0
    5.7476  -10.5640    0.0000 O   0  0  0  0  0  0  0  0  0  0  0  0
    5.8133   -7.5648    0.0000 O   0  0  0  0  0  0  0  0  0  0  0  0
    9.2147  -10.6516    0.0000 O   0  0  0  0  0  0  0  0  0  0  0  0
    8.3289  -12.0931    0.0000 S   0  0  0  0  0  0  0  0  0  0  0  0
    9.1965  -11.5921    0.0000 O   0  0  0  0  0  0  0  0  0  0  0  0
    7.8280  -12.9609    0.0000 O   0  0  0  0  0  0  0  0  0  0  0  0
    8.8298  -12.9609    0.0000 O   0  0  0  0  0  0  0  0  0  0  0  0
   14.4535   -8.6393    0.0000 C   0  0  0  0  0  0  0  0  0  0  0  0
   15.3212   -9.1403    0.0000 C   0  0  0  0  0  0  0  0  0  0  0  0
   16.1889   -8.6393    0.0000 C   0  0  0  0  0  0  0  0  0  0  0  0
   17.0566   -9.1403    0.0000 C   0  0  0  0  0  0  0  0  0  0  0  0
  1  2  1  0     0  0
  3  2  1  0     0  0
  3  4  1  0     0  0
  3  5  1  6     0  0
  4  6  1  0     0  0
  8  9  1  0     0  0
  8 10  1  0     0  0
  9 11  1  0     0  0
 10 12  1  0     0  0
 11 13  1  0     0  0
 11 14  1  1     0  0
 12 15  1  1     0  0
 13 16  1  1     0  0
 12 13  1  0     0  0
 14 17  1  0     0  0
  8  1  1  1     0  0
 10 18  1  6     0  0
 15 19  1  0     0  0
 19 20  1  0     0  0
 19 21  2  0     0  0
 19 22  2  0     0  0
  6  7  1  0     0  0
  7 23  1  0     0  0
 23 24  1  0     0  0
 24 25  1  0     0  0
 25 26  1  0     0  0
M  END
> <ID>
CHEBI:133428

> <NAME>
1-pentyl-3-(3-O-sulfo-beta-D-galactosyl)-sn-glycerol

> <DEFINITION>
A galactoglycerolipid that consists of 3-(3-O-sulfo-β-D-galactosyl)-sn-glycerol in which the glycerol portion is alkylated at position 1 by a pentyl group.

> <STAR>
3

> <SYNONYM>
lysoseminolipid; 1-O-pentyl-3-O-(3-O-sulfo-beta-D-galactosyl)-sn-glycerol

> <IUPAC_NAME>
(2R)-2-hydroxy-3-(pentyloxy)propyl 3-O-sulfo-beta-D-galactopyranoside

> <FORMULA>
C14H28O11S

> <MASS>
404.432

> <MONOISOTOPIC_MASS>
404.13523

> <CHARGE>
0

> <SMILES>
O(C[C@@H](COCCCCC)O)[C@@H]1O[C@@H]([C@H](O)[C@@H]([C@H]1O)OS(O)(=O)=O)CO

> <INCHI>
InChI=1S/C14H28O11S/c1-2-3-4-5-22-7-9(16)8-23-14-12(18)13(25-26(19,20)21)11(17)10(6-15)24-14/h9-18H,2-8H2,1H3,(H,19,20,21)/t9-,10-,11+,12-,13+,14-/m1/s1

> <INCHIKEY>
ZLOPGKZMRGGNDS-IKKURHKOSA-N

> <PUBMED_CITATION>
2455508; 6196425

$$$$

Ketcher 09291612182D 1   1.00000     0.00000     0

 47 49  0     1  0            999 V2000
   24.1787  -25.9473    0.0000 O   0  0  0  0  0  0  0  0  0  0  0  0
   25.0355  -22.4849    0.0000 C   0  0  0  0  0  0  0  0  0  0  0  0
   25.8923  -22.9796    0.0000 C   0  0  0  0  0  0  0  0  0  0  0  0
   25.8923  -23.9689    0.0000 C   0  0  0  0  0  0  0  0  0  0  0  0
   25.0355  -24.4636    0.0000 C   0  0  0  0  0  0  0  0  0  0  0  0
   24.1788  -22.9796    0.0000 O   0  0  0  0  0  0  0  0  0  0  0  0
   24.1789  -23.9688    0.0000 C   0  0  0  0  0  0  0  0  0  0  0  0
   26.8026  -24.4778    0.0000 O   0  0  0  0  0  0  0  0  0  0  0  0
   26.0079  -21.9788    0.0000 C   0  0  0  0  0  0  0  0  0  0  0  0
   26.8877  -22.4802    0.0000 O   0  0  0  0  0  0  0  0  0  0  0  0
   26.0505  -21.0459    0.0000 O   0  0  0  0  0  0  0  0  0  0  0  0
   25.0353  -25.4528    0.0000 N   0  0  0  0  0  0  0  0  0  0  0  0
   25.8922  -25.9477    0.0000 C   0  0  0  0  0  0  0  0  0  0  0  0
   25.8923  -26.9369    0.0000 C   0  0  0  0  0  0  0  0  0  0  0  0
   26.7490  -25.4529    0.0000 O   0  0  0  0  0  0  0  0  0  0  0  0
   23.3221  -24.4636    0.0000 C   0  0  0  0  0  0  0  0  0  0  0  0
   22.4654  -23.9688    0.0000 O   0  0  0  0  0  0  0  0  0  0  0  0
   23.3219  -25.4526    0.0000 C   0  0  0  0  0  0  0  0  0  0  0  0
   22.4654  -25.9472    0.0000 C   0  0  0  0  0  0  0  0  0  0  0  0
   23.3271  -23.4771    0.0000 H   0  0  0  0  0  0  0  0  0  0  0  0
   21.6025  -25.4520    0.0000 O   0  0  0  0  0  0  0  0  0  0  0  0
   25.1304  -21.1018    0.0000 O   0  0  0  0  0  0  0  0  0  0  0  0
   25.9872  -18.6287    0.0000 C   0  0  0  0  0  0  0  0  0  0  0  0
   25.9872  -19.6180    0.0000 C   0  0  0  0  0  0  0  0  0  0  0  0
   25.1305  -18.1341    0.0000 O   0  0  0  0  0  0  0  0  0  0  0  0
   25.1304  -20.1126    0.0000 C   0  0  0  0  0  0  0  0  0  0  0  0
   24.2737  -18.6286    0.0000 C   0  0  0  0  0  0  0  0  0  0  0  0
   24.2737  -19.6179    0.0000 C   0  0  0  0  0  0  0  0  0  0  0  0
   26.8440  -18.1340    0.0000 O   0  0  0  0  0  0  0  0  0  0  0  0
   26.8440  -20.1126    0.0000 O   0  0  0  0  0  0  0  0  0  0  0  0
   23.4169  -20.1126    0.0000 O   0  0  0  0  0  0  0  0  0  0  0  0
   23.4169  -18.1340    0.0000 C   0  0  0  0  0  0  0  0  0  0  0  0
   23.4170  -17.1447    0.0000 O   0  0  0  0  0  0  0  0  0  0  0  0
   22.5602  -19.6180    0.0000 C   0  0  0  0  0  0  0  0  0  0  0  0
   21.7035  -20.1125    0.0000 C   0  0  0  0  0  0  0  0  0  0  0  0
   22.5602  -18.6286    0.0000 O   0  0  0  0  0  0  0  0  0  0  0  0
   20.8468  -19.6179    0.0000 C   0  0  0  0  0  0  0  0  0  0  0  0
   21.7035  -18.1339    0.0000 C   0  0  0  0  0  0  0  0  0  0  0  0
   20.8468  -18.6286    0.0000 C   0  0  0  0  0  0  0  0  0  0  0  0
   21.7035  -21.1018    0.0000 N   0  0  0  0  0  0  0  0  0  0  0  0
   19.9900  -20.1125    0.0000 O   0  0  0  0  0  0  0  0  0  0  0  0
   19.9900  -18.1340    0.0000 O   0  0  0  0  0  0  0  0  0  0  0  0
   21.7034  -17.1447    0.0000 C   0  0  0  0  0  0  0  0  0  0  0  0
   20.8467  -16.6501    0.0000 O   0  0  0  0  0  0  0  0  0  0  0  0
   20.8468  -21.5964    0.0000 C   0  0  0  0  0  0  0  0  0  0  0  0
   20.8467  -22.5858    0.0000 C   0  0  0  0  0  0  0  0  0  0  0  0
   19.9901  -21.1018    0.0000 O   0  0  0  0  0  0  0  0  0  0  0  0
  4  3  1  0     0  0
  2  3  1  0     0  0
  5  4  1  0     0  0
  6  2  1  0     0  0
  7  5  1  0     0  0
  7  6  1  0     0  0
  4  8  1  6     0  0
 10  9  2  0     0  0
 11  9  1  0     0  0
  2  9  1  0     0  0
  5 12  1  1     0  0
 12 13  1  0     0  0
 13 14  1  0     0  0
 13 15  2  0     0  0
  7 16  1  0     0  0
 16 17  1  1     0  0
 16 18  1  0     0  0
 18 19  1  0     0  0
 18  1  1  6     0  0
  7 20  1  1     0  0
 19 21  1  0     0  0
  2 22  1  6     0  0
 23 24  1  0     0  0
 23 25  1  0     0  0
 24 26  1  0     0  0
 25 27  1  0     0  0
 26 28  1  0     0  0
 27 28  1  0     0  0
 23 29  1  1     0  0
 24 30  1  6     0  0
 26 22  1  1     0  0
 28 31  1  1     0  0
 27 32  1  1     0  0
 32 33  1  0     0  0
 34 35  1  0     0  0
 34 36  1  0     0  0
 35 37  1  0     0  0
 36 38  1  0     0  0
 37 39  1  0     0  0
 38 39  1  0     0  0
 34 31  1  1     0  0
 35 40  1  6     0  0
 37 41  1  1     0  0
 39 42  1  1     0  0
 38 43  1  1     0  0
 44 43  1  0     0  0
 40 45  1  0     0  0
 45 46  1  0     0  0
 45 47  2  0     0  0
M  END
> <ID>
CHEBI:133503

> <NAME>
beta-D-GalpNAc-(1->4)-[alpha-Neup5Gc-(2->3)]-beta-D-Galp

> <DEFINITION>
An amino trisaccharide consisting of N-acetyl-β-D-galactosaminyl and 5-glycoloyl-α-neuraminyl residues linked respectively (1→4) and (2→3) to β-D-galactose.

> <STAR>
3

> <SYNONYM>
N-acetyl-beta-D-galactosaminyl-(1->4)-[5-glycoloyl-alpha-neuraminyl-(2->3)]-beta-D-galactose; GalNAcbeta1-4[NeuGcalpha2-3]Gal; beta-D-GalNAc-(1->4)-[alpha-Neu5Gc-(2->3)]-beta-D-Gal

> <IUPAC_NAME>
2-acetamido-2-deoxy-beta-D-galactopyranosyl-(1->4)-[5-acetamido-3,5-dideoxy-D-glycero-alpha-D-galacto-non-2-ulopyranonosyl-(2->3)]-beta-D-galactopyranose

> <FORMULA>
C25H42N2O19

> <MASS>
674.604

> <MONOISOTOPIC_MASS>
674.23818

> <CHARGE>
0

> <SMILES>
O[C@@H]([C@H]([C@]1([C@@H]([C@H](C[C@@](O1)(C(=O)O)O[C@@H]2[C@H]([C@@H](O[C@@H]([C@@H]2O[C@H]3[C@@H]([C@H]([C@H]([C@H](O3)CO)O)O)NC(C)=O)CO)O)O)O)NC(C)=O)[H])O)CO

> <INCHI>
InChI=1S/C25H42N2O19/c1-7(31)26-13-9(33)3-25(24(40)41,45-20(13)15(35)10(34)4-28)46-21-18(38)22(39)42-12(6-30)19(21)44-23-14(27-8(2)32)17(37)16(36)11(5-29)43-23/h9-23,28-30,33-39H,3-6H2,1-2H3,(H,26,31)(H,27,32)(H,40,41)/t9-,10+,11+,12+,13+,14+,15+,16-,17+,18+,19-,20+,21+,22+,23-,25-/m0/s1

> <INCHIKEY>
KWKKUWAYFCZFPG-WZWAJIPQSA-N

> <PUBMED_CITATION>
2449247

$$$$

Ketcher 11241612282D 1   1.00000     0.00000     0

 50 53  0     1  0            999 V2000
   37.2859   -2.1089    0.0000 C   0  0  0  0  0  0  0  0  0  0  0  0
   37.2859   -3.1089    0.0000 C   0  0  0  0  0  0  0  0  0  0  0  0
   36.4199   -1.6089    0.0000 O   0  0  0  0  0  0  0  0  0  0  0  0
   36.4199   -3.6089    0.0000 C   0  0  0  0  0  0  0  0  0  0  0  0
   35.5539   -2.1089    0.0000 C   0  0  0  0  0  0  0  0  0  0  0  0
   35.5539   -3.1089    0.0000 C   0  0  0  0  0  0  0  0  0  0  0  0
   38.1520   -1.6089    0.0000 O   0  0  0  0  0  0  0  0  0  0  0  0
   38.1520   -3.6089    0.0000 O   0  0  0  0  0  0  0  0  0  0  0  0
   36.4199   -4.6089    0.0000 O   0  0  0  0  0  0  0  0  0  0  0  0
   34.6879   -3.6089    0.0000 O   0  0  0  0  0  0  0  0  0  0  0  0
   34.6879   -1.6089    0.0000 C   0  0  0  0  0  0  0  0  0  0  0  0
   33.8219   -2.1089    0.0000 O   0  0  0  0  0  0  0  0  0  0  0  0
   39.0180   -2.1089    0.0000 C   0  0  0  0  0  0  0  0  0  0  0  0
   39.8841   -1.6089    0.0000 C   0  0  0  0  0  0  0  0  0  0  0  0
   40.7501   -2.1089    0.0000 N   0  0  0  0  0  0  0  0  0  0  0  0
   33.8219   -4.1089    0.0000 C   0  0  0  0  0  0  0  0  0  0  0  0
   33.8219   -5.1089    0.0000 C   0  0  0  0  0  0  0  0  0  0  0  0
   32.9558   -3.6089    0.0000 O   0  0  0  0  0  0  0  0  0  0  0  0
   32.9558   -5.6089    0.0000 C   0  0  0  0  0  0  0  0  0  0  0  0
   32.0898   -4.1089    0.0000 C   0  0  0  0  0  0  0  0  0  0  0  0
   32.0898   -5.1089    0.0000 C   0  0  0  0  0  0  0  0  0  0  0  0
   34.6879   -5.6089    0.0000 O   0  0  0  0  0  0  0  0  0  0  0  0
   32.9557   -6.6089    0.0000 O   0  0  0  0  0  0  0  0  0  0  0  0
   31.2238   -5.6089    0.0000 O   0  0  0  0  0  0  0  0  0  0  0  0
   31.2238   -3.6089    0.0000 C   0  0  0  0  0  0  0  0  0  0  0  0
   30.3578   -4.1089    0.0000 O   0  0  0  0  0  0  0  0  0  0  0  0
   31.2238   -2.6089    0.0000 O   0  0  0  0  0  0  0  0  0  0  0  0
   32.0897   -7.1089    0.0000 C   0  0  0  0  0  0  0  0  0  0  0  0
   32.0897   -8.1089    0.0000 C   0  0  0  0  0  0  0  0  0  0  0  0
   31.2237   -6.6089    0.0000 O   0  0  0  0  0  0  0  0  0  0  0  0
   31.2237   -8.6089    0.0000 C   0  0  0  0  0  0  0  0  0  0  0  0
   30.3577   -7.1089    0.0000 C   0  0  0  0  0  0  0  0  0  0  0  0
   30.3577   -8.1089    0.0000 C   0  0  0  0  0  0  0  0  0  0  0  0
   32.9557   -8.6089    0.0000 O   0  0  0  0  0  0  0  0  0  0  0  0
   31.2236   -9.6089    0.0000 O   0  0  0  0  0  0  0  0  0  0  0  0
   29.4917   -8.6089    0.0000 O   0  0  0  0  0  0  0  0  0  0  0  0
   29.4917   -6.6089    0.0000 C   0  0  0  0  0  0  0  0  0  0  0  0
   28.6256   -7.1089    0.0000 O   0  0  0  0  0  0  0  0  0  0  0  0
   28.6257   -9.1089    0.0000 C   0  0  0  0  0  0  0  0  0  0  0  0
   28.6257  -10.1089    0.0000 C   0  0  0  0  0  0  0  0  0  0  0  0
   27.7596   -8.6089    0.0000 O   0  0  0  0  0  0  0  0  0  0  0  0
   27.7596  -10.6089    0.0000 C   0  0  0  0  0  0  0  0  0  0  0  0
   26.8936   -9.1089    0.0000 C   0  0  0  0  0  0  0  0  0  0  0  0
   26.8936  -10.1089    0.0000 C   0  0  0  0  0  0  0  0  0  0  0  0
   29.4917  -10.6089    0.0000 O   0  0  0  0  0  0  0  0  0  0  0  0
   27.7595  -11.6089    0.0000 O   0  0  0  0  0  0  0  0  0  0  0  0
   26.0275  -10.6089    0.0000 O   0  0  0  0  0  0  0  0  0  0  0  0
   26.0275   -8.6089    0.0000 C   0  0  0  0  0  0  0  0  0  0  0  0
   25.1615   -9.1089    0.0000 O   0  0  0  0  0  0  0  0  0  0  0  0
   26.0275   -7.6089    0.0000 O   0  0  0  0  0  0  0  0  0  0  0  0
  1  2  1  0     0  0
  1  3  1  0     0  0
  2  4  1  0     0  0
  3  5  1  0     0  0
  4  6  1  0     0  0
  5  6  1  0     0  0
  1  7  1  1     0  0
  2  8  1  6     0  0
  4  9  1  1     0  0
  6 10  1  6     0  0
  5 11  1  1     0  0
 12 11  1  0     0  0
  7 13  1  0     0  0
 13 14  1  0     0  0
 14 15  1  0     0  0
 16 17  1  0     0  0
 16 18  1  0     0  0
 17 19  1  0     0  0
 18 20  1  0     0  0
 19 21  1  0     0  0
 20 21  1  0     0  0
 16 10  1  1     0  0
 17 22  1  6     0  0
 19 23  1  1     0  0
 21 24  1  6     0  0
 20 25  1  1     0  0
 26 25  1  0     0  0
 25 27  2  0     0  0
 28 29  1  0     0  0
 28 30  1  0     0  0
 29 31  1  0     0  0
 30 32  1  0     0  0
 31 33  1  0     0  0
 32 33  1  0     0  0
 28 23  1  1     0  0
 29 34  1  6     0  0
 31 35  1  1     0  0
 33 36  1  6     0  0
 32 37  1  1     0  0
 38 37  1  0     0  0
 39 40  1  0     0  0
 39 41  1  0     0  0
 40 42  1  0     0  0
 41 43  1  0     0  0
 42 44  1  0     0  0
 43 44  1  0     0  0
 39 36  1  1     0  0
 40 45  1  6     0  0
 42 46  1  1     0  0
 44 47  1  6     0  0
 43 48  1  1     0  0
 49 48  1  0     0  0
 48 50  2  0     0  0
M  END
> <ID>
CHEBI:134023

> <NAME>
beta-D-GlcpA-(1->4)-beta-D-Glcp-(1->3)-beta-D-GlcpA-(1->4)-beta-D-GlcpOCH2CH2NH2

> <DEFINITION>
A β-D-glucoside that is the 2-aminoethyl glycoside of a tetrasaccharide, a synthetic dimer of cellobiuronic acid in which the two β-D-glucuronosyl-(1→4)-β-D-glucosyl disaccharide units are linked (1→3)

> <STAR>
3

> <SYNONYM>
GlcAbeta1-4Glcbeta1-3GlcAbeta1-4GlcbetaOCH2CH2NH2; beta-D-GlcA-(1->4)-beta-D-Glc-(1->3)-beta-D-GlcA-(1->4)-beta-D-GlcOCH2CH2NH2; 2-aminoethyl beta-D-glucuronosyl-(1->4)-beta-D-glucosyl-(1->3)-beta-D-glucuronosyl-(1->4)-beta-D-glucoside

> <IUPAC_NAME>
2-aminoethyl beta-D-glucopyranuronosyl-(1->4)-beta-D-glucopyranosyl-(1->3)-beta-D-glucopyranuronosyl-(1->4)-beta-D-glucopyranoside

> <FORMULA>
C26H43NO23

> <MASS>
737.614

> <MONOISOTOPIC_MASS>
737.22259

> <CHARGE>
0

> <SMILES>
[C@@H]1([C@@H]([C@H]([C@@H]([C@H](O1)CO)O[C@H]2[C@@H]([C@H]([C@@H]([C@H](O2)C(O)=O)O)O[C@H]3[C@@H]([C@H]([C@@H]([C@H](O3)CO)O[C@H]4[C@@H]([C@H]([C@@H]([C@H](O4)C(O)=O)O)O)O)O)O)O)O)O)OCCN

> <INCHI>
InChI=1S/C26H43NO23/c27-1-2-43-23-12(35)9(32)16(5(3-28)44-23)47-26-15(38)18(14(37)20(50-26)22(41)42)48-24-13(36)10(33)17(6(4-29)45-24)46-25-11(34)7(30)8(31)19(49-25)21(39)40/h5-20,23-26,28-38H,1-4,27H2,(H,39,40)(H,41,42)/t5-,6-,7+,8+,9-,10-,11-,12-,13-,14+,15-,16-,17-,18+,19+,20+,23-,24+,25-,26-/m1/s1

> <INCHIKEY>
QHHVRJJSANHVGE-GNNOKLTGSA-N

> <REAXYS_REGISTRY_NUMBER>
27954413

> <PUBMED_CITATION>
27818299; 28275152

$$$$

Ketcher 11241616412D 1   1.00000     0.00000     0

 38 40  0     1  0            999 V2000
   24.3357  -15.6146    0.0000 C   0  0  0  0  0  0  0  0  0  0  0  0
   24.3357  -16.6146    0.0000 C   0  0  0  0  0  0  0  0  0  0  0  0
   23.4696  -15.1146    0.0000 O   0  0  0  0  0  0  0  0  0  0  0  0
   23.4696  -17.1146    0.0000 C   0  0  0  0  0  0  0  0  0  0  0  0
   22.6036  -15.6146    0.0000 C   0  0  0  0  0  0  0  0  0  0  0  0
   22.6036  -16.6146    0.0000 C   0  0  0  0  0  0  0  0  0  0  0  0
   25.2017  -15.1146    0.0000 O   0  0  0  0  0  0  0  0  0  0  0  0
   25.2017  -17.1147    0.0000 O   0  0  0  0  0  0  0  0  0  0  0  0
   23.4696  -18.1146    0.0000 O   0  0  0  0  0  0  0  0  0  0  0  0
   21.7376  -17.1146    0.0000 O   0  0  0  0  0  0  0  0  0  0  0  0
   21.7376  -15.1147    0.0000 C   0  0  0  0  0  0  0  0  0  0  0  0
   20.8716  -15.6147    0.0000 O   0  0  0  0  0  0  0  0  0  0  0  0
   26.0677  -15.6146    0.0000 C   0  0  0  0  0  0  0  0  0  0  0  0
   26.9337  -15.1146    0.0000 C   0  0  0  0  0  0  0  0  0  0  0  0
   27.7998  -15.6146    0.0000 N   0  0  0  0  0  0  0  0  0  0  0  0
   20.8716  -17.6146    0.0000 C   0  0  0  0  0  0  0  0  0  0  0  0
   20.8716  -18.6147    0.0000 C   0  0  0  0  0  0  0  0  0  0  0  0
   20.0055  -17.1147    0.0000 O   0  0  0  0  0  0  0  0  0  0  0  0
   20.0055  -19.1146    0.0000 C   0  0  0  0  0  0  0  0  0  0  0  0
   19.1395  -17.6146    0.0000 C   0  0  0  0  0  0  0  0  0  0  0  0
   19.1395  -18.6147    0.0000 C   0  0  0  0  0  0  0  0  0  0  0  0
   21.7376  -19.1146    0.0000 O   0  0  0  0  0  0  0  0  0  0  0  0
   20.0055  -20.1146    0.0000 O   0  0  0  0  0  0  0  0  0  0  0  0
   18.2734  -19.1146    0.0000 O   0  0  0  0  0  0  0  0  0  0  0  0
   18.2734  -17.1147    0.0000 C   0  0  0  0  0  0  0  0  0  0  0  0
   17.4074  -17.6147    0.0000 O   0  0  0  0  0  0  0  0  0  0  0  0
   18.2734  -16.1147    0.0000 O   0  0  0  0  0  0  0  0  0  0  0  0
   19.1395  -20.6146    0.0000 C   0  0  0  0  0  0  0  0  0  0  0  0
   19.1395  -21.6146    0.0000 C   0  0  0  0  0  0  0  0  0  0  0  0
   18.2734  -20.1146    0.0000 O   0  0  0  0  0  0  0  0  0  0  0  0
   18.2734  -22.1146    0.0000 C   0  0  0  0  0  0  0  0  0  0  0  0
   17.4074  -20.6146    0.0000 C   0  0  0  0  0  0  0  0  0  0  0  0
   17.4074  -21.6146    0.0000 C   0  0  0  0  0  0  0  0  0  0  0  0
   20.0055  -22.1146    0.0000 O   0  0  0  0  0  0  0  0  0  0  0  0
   18.2734  -23.1146    0.0000 O   0  0  0  0  0  0  0  0  0  0  0  0
   16.5414  -22.1146    0.0000 O   0  0  0  0  0  0  0  0  0  0  0  0
   16.5414  -20.1146    0.0000 C   0  0  0  0  0  0  0  0  0  0  0  0
   15.6753  -20.6146    0.0000 O   0  0  0  0  0  0  0  0  0  0  0  0
  1  2  1  0     0  0
  1  3  1  0     0  0
  2  4  1  0     0  0
  3  5  1  0     0  0
  4  6  1  0     0  0
  5  6  1  0     0  0
  1  7  1  1     0  0
  2  8  1  6     0  0
  4  9  1  1     0  0
  6 10  1  6     0  0
  5 11  1  1     0  0
 12 11  1  0     0  0
  7 13  1  0     0  0
 13 14  1  0     0  0
 14 15  1  0     0  0
 16 17  1  0     0  0
 16 18  1  0     0  0
 17 19  1  0     0  0
 18 20  1  0     0  0
 19 21  1  0     0  0
 20 21  1  0     0  0
 16 10  1  1     0  0
 17 22  1  6     0  0
 19 23  1  1     0  0
 21 24  1  6     0  0
 20 25  1  1     0  0
 26 25  1  0     0  0
 25 27  2  0     0  0
 28 29  1  0     0  0
 28 30  1  0     0  0
 29 31  1  0     0  0
 30 32  1  0     0  0
 31 33  1  0     0  0
 32 33  1  0     0  0
 28 23  1  1     0  0
 29 34  1  6     0  0
 31 35  1  1     0  0
 33 36  1  6     0  0
 32 37  1  1     0  0
 38 37  1  0     0  0
M  END
> <ID>
CHEBI:134029

> <NAME>
beta-D-Glcp-(1->3)-beta-D-GlcpA-(1->4)-beta-D-GlcpOCH2CH2NH2

> <DEFINITION>
A β-D-glucoside that is the 2-aminoethyl glycoside of a trisaccharide consisting of β-D-glucosyl, β-D-glucuronosyl and β-D-glucosyl residues linked sequentially (1→3) and (1→4).

> <STAR>
3

> <SYNONYM>
Glcbeta1-3GlcbetaA1-4GlcbetaOCH2CH2NH2; beta-D-Glcp-(1->3)-beta-D-GlcpA-(1->4)-beta-D-GlcpO[CH2]2NH2; beta-D-Glc-(1->3)-beta-D-GlcA-(1->4)-beta-D-GlcOCH2CH2NH2; beta-D-Glc-(1->3)-beta-D-GlcA-(1->4)-beta-D-GlcO[CH2]2NH2; 2-aminoethyl beta-D-glucosyl-(1->3)-beta-D-glucuronosyl-(1->4)-beta-D-glucoside

> <IUPAC_NAME>
2-aminoethyl beta-D-glucopyranosyl-(1->3)-beta-D-glucopyranuronosyl-(1->4)-beta-D-glucopyranoside

> <FORMULA>
C20H35NO17

> <MASS>
561.489

> <MONOISOTOPIC_MASS>
561.19050

> <CHARGE>
0

> <SMILES>
[C@@H]1([C@@H]([C@H]([C@@H]([C@H](O1)CO)O[C@H]2[C@@H]([C@H]([C@@H]([C@H](O2)C(O)=O)O)O[C@H]3[C@@H]([C@H]([C@@H]([C@H](O3)CO)O)O)O)O)O)O)OCCN

> <INCHI>
InChI=1S/C20H35NO17/c21-1-2-33-18-11(28)9(26)14(6(4-23)35-18)36-20-13(30)15(12(29)16(38-20)17(31)32)37-19-10(27)8(25)7(24)5(3-22)34-19/h5-16,18-20,22-30H,1-4,21H2,(H,31,32)/t5-,6-,7-,8+,9-,10-,11-,12+,13-,14-,15+,16+,18-,19+,20-/m1/s1

> <INCHIKEY>
DERLBTRJVKJJBP-GQGWLASBSA-N

> <PUBMED_CITATION>
27818299; 28275152

$$$$

Ketcher 11241617002D 1   1.00000     0.00000     0

 41 43  0     1  0            999 V2000
   47.3235  -16.3255    0.0000 C   0  0  0  0  0  0  0  0  0  0  0  0
   47.3235  -17.3255    0.0000 C   0  0  0  0  0  0  0  0  0  0  0  0
   46.4575  -15.8255    0.0000 O   0  0  0  0  0  0  0  0  0  0  0  0
   46.4575  -17.8255    0.0000 C   0  0  0  0  0  0  0  0  0  0  0  0
   45.5914  -16.3255    0.0000 C   0  0  0  0  0  0  0  0  0  0  0  0
   45.5914  -17.3255    0.0000 C   0  0  0  0  0  0  0  0  0  0  0  0
   48.1896  -15.8254    0.0000 O   0  0  0  0  0  0  0  0  0  0  0  0
   48.1896  -17.8255    0.0000 O   0  0  0  0  0  0  0  0  0  0  0  0
   46.4575  -18.8255    0.0000 O   0  0  0  0  0  0  0  0  0  0  0  0
   44.7254  -17.8255    0.0000 O   0  0  0  0  0  0  0  0  0  0  0  0
   44.7254  -15.8255    0.0000 C   0  0  0  0  0  0  0  0  0  0  0  0
   43.8594  -16.3255    0.0000 O   0  0  0  0  0  0  0  0  0  0  0  0
   49.0556  -16.3254    0.0000 C   0  0  0  0  0  0  0  0  0  0  0  0
   49.9216  -15.8254    0.0000 C   0  0  0  0  0  0  0  0  0  0  0  0
   50.7876  -16.3254    0.0000 C   0  0  0  0  0  0  0  0  0  0  0  0
   43.8594  -18.3255    0.0000 C   0  0  0  0  0  0  0  0  0  0  0  0
   43.8594  -19.3255    0.0000 C   0  0  0  0  0  0  0  0  0  0  0  0
   42.9933  -17.8255    0.0000 O   0  0  0  0  0  0  0  0  0  0  0  0
   42.9933  -19.8255    0.0000 C   0  0  0  0  0  0  0  0  0  0  0  0
   42.1273  -18.3255    0.0000 C   0  0  0  0  0  0  0  0  0  0  0  0
   42.1273  -19.3255    0.0000 C   0  0  0  0  0  0  0  0  0  0  0  0
   44.7254  -19.8255    0.0000 O   0  0  0  0  0  0  0  0  0  0  0  0
   42.9933  -20.8255    0.0000 O   0  0  0  0  0  0  0  0  0  0  0  0
   41.2613  -19.8255    0.0000 O   0  0  0  0  0  0  0  0  0  0  0  0
   41.2613  -17.8255    0.0000 C   0  0  0  0  0  0  0  0  0  0  0  0
   40.3953  -18.3255    0.0000 O   0  0  0  0  0  0  0  0  0  0  0  0
   41.2613  -16.8255    0.0000 O   0  0  0  0  0  0  0  0  0  0  0  0
   42.1273  -21.3255    0.0000 C   0  0  0  0  0  0  0  0  0  0  0  0
   42.1273  -22.3255    0.0000 C   0  0  0  0  0  0  0  0  0  0  0  0
   41.2612  -20.8255    0.0000 O   0  0  0  0  0  0  0  0  0  0  0  0
   41.2612  -22.8255    0.0000 C   0  0  0  0  0  0  0  0  0  0  0  0
   40.3952  -21.3255    0.0000 C   0  0  0  0  0  0  0  0  0  0  0  0
   40.3952  -22.3255    0.0000 C   0  0  0  0  0  0  0  0  0  0  0  0
   42.9933  -22.8255    0.0000 O   0  0  0  0  0  0  0  0  0  0  0  0
   41.2612  -23.8255    0.0000 O   0  0  0  0  0  0  0  0  0  0  0  0
   39.5292  -22.8255    0.0000 O   0  0  0  0  0  0  0  0  0  0  0  0
   39.5292  -20.8255    0.0000 C   0  0  0  0  0  0  0  0  0  0  0  0
   38.6632  -21.3255    0.0000 O   0  0  0  0  0  0  0  0  0  0  0  0
   51.6536  -15.8254    0.0000 C   0  0  0  0  0  0  0  0  0  0  0  0
   52.5197  -16.3254    0.0000 C   0  0  0  0  0  0  0  0  0  0  0  0
   53.3857  -15.8254    0.0000 N   0  0  0  0  0  0  0  0  0  0  0  0
  1  2  1  0     0  0
  1  3  1  0     0  0
  2  4  1  0     0  0
  3  5  1  0     0  0
  4  6  1  0     0  0
  5  6  1  0     0  0
  1  7  1  1     0  0
  2  8  1  6     0  0
  4  9  1  1     0  0
  6 10  1  6     0  0
  5 11  1  1     0  0
 12 11  1  0     0  0
  7 13  1  0     0  0
 13 14  1  0     0  0
 14 15  1  0     0  0
 16 17  1  0     0  0
 16 18  1  0     0  0
 17 19  1  0     0  0
 18 20  1  0     0  0
 19 21  1  0     0  0
 20 21  1  0     0  0
 16 10  1  1     0  0
 17 22  1  6     0  0
 19 23  1  1     0  0
 21 24  1  6     0  0
 20 25  1  1     0  0
 26 25  1  0     0  0
 25 27  2  0     0  0
 28 29  1  0     0  0
 28 30  1  0     0  0
 29 31  1  0     0  0
 30 32  1  0     0  0
 31 33  1  0     0  0
 32 33  1  0     0  0
 28 23  1  1     0  0
 29 34  1  6     0  0
 31 35  1  1     0  0
 33 36  1  6     0  0
 32 37  1  1     0  0
 38 37  1  0     0  0
 15 39  1  0     0  0
 39 40  1  0     0  0
 40 41  1  0     0  0
M  END
> <ID>
CHEBI:134030

> <NAME>
beta-D-Glcp-(1->3)-beta-D-GlcpA-(1->4)-beta-D-GlcpO[CH2]5NH2

> <DEFINITION>
A β-D-glucoside that is the 5-aminopentyl glycoside of a trisaccharide consisting of β-D-glucosyl, β-D-glucuronosyl and β-D-glucosyl residues linked sequentially (1→3) and (1→4).

> <STAR>
3

> <SYNONYM>
Glc1-3GlcA1-4GlcOCH2CH2CH2CH2CH2NH2; Glc1-3GlcA1-4GlcO[CH2]5NH2; beta-D-Glcp-(1->3)-beta-D-GlcpA-(1->4)-beta-D-GlcpOCH2CH2CH2CH2CH2NH2; beta-D-Glc-(1->3)-beta-D-GlcA-(1->4)-beta-D-GlcOCH2CH2CH2CH2CH2NH2; beta-D-Glc-(1->3)-beta-D-GlcA-(1->4)-beta-D-GlcO[CH2]5NH2; 5-aminopentyl beta-D-glucosyl-(1->3)-beta-D-glucuronosyl-(1->4)-beta-D-glucoside

> <IUPAC_NAME>
5-aminopentyl beta-D-glucopyranosyl-(1->3)-beta-D-glucopyranuronosyl-(1->4)-beta-D-glucopyranoside

> <FORMULA>
C23H41NO17

> <MASS>
603.569

> <MONOISOTOPIC_MASS>
603.23745

> <CHARGE>
0

> <SMILES>
[C@@H]1([C@@H]([C@H]([C@@H]([C@H](O1)CO)O[C@H]2[C@@H]([C@H]([C@@H]([C@H](O2)C(O)=O)O)O[C@H]3[C@@H]([C@H]([C@@H]([C@H](O3)CO)O)O)O)O)O)O)OCCCCCN

> <INCHI>
InChI=1S/C23H41NO17/c24-4-2-1-3-5-36-21-14(31)12(29)17(9(7-26)38-21)39-23-16(33)18(15(32)19(41-23)20(34)35)40-22-13(30)11(28)10(27)8(6-25)37-22/h8-19,21-23,25-33H,1-7,24H2,(H,34,35)/t8-,9-,10-,11+,12-,13-,14-,15+,16-,17-,18+,19+,21-,22+,23-/m1/s1

> <INCHIKEY>
CUAFCFBPQLUSPT-AKODJRMUSA-N

> <REAXYS_REGISTRY_NUMBER>
30084364

> <PUBMED_CITATION>
27559395; 27818299

$$$$

Ketcher 11251609312D 1   1.00000     0.00000     0

 39 41  0     1  0            999 V2000
   19.3255  -32.8798    0.0000 C   0  0  0  0  0  0  0  0  0  0  0  0
   19.3255  -33.8798    0.0000 C   0  0  0  0  0  0  0  0  0  0  0  0
   18.4594  -32.3798    0.0000 O   0  0  0  0  0  0  0  0  0  0  0  0
   18.4594  -34.3798    0.0000 C   0  0  0  0  0  0  0  0  0  0  0  0
   17.5934  -32.8798    0.0000 C   0  0  0  0  0  0  0  0  0  0  0  0
   17.5934  -33.8798    0.0000 C   0  0  0  0  0  0  0  0  0  0  0  0
   20.1915  -32.3798    0.0000 O   0  0  0  0  0  0  0  0  0  0  0  0
   20.1915  -34.3798    0.0000 O   0  0  0  0  0  0  0  0  0  0  0  0
   18.4594  -35.3798    0.0000 O   0  0  0  0  0  0  0  0  0  0  0  0
   16.7274  -34.3798    0.0000 O   0  0  0  0  0  0  0  0  0  0  0  0
   16.7274  -32.3798    0.0000 C   0  0  0  0  0  0  0  0  0  0  0  0
   15.8614  -32.8798    0.0000 O   0  0  0  0  0  0  0  0  0  0  0  0
   16.7274  -31.3798    0.0000 O   0  0  0  0  0  0  0  0  0  0  0  0
   22.7897  -30.8798    0.0000 C   0  0  0  0  0  0  0  0  0  0  0  0
   22.7897  -31.8798    0.0000 C   0  0  0  0  0  0  0  0  0  0  0  0
   21.9236  -30.3798    0.0000 O   0  0  0  0  0  0  0  0  0  0  0  0
   21.9236  -32.3798    0.0000 C   0  0  0  0  0  0  0  0  0  0  0  0
   21.0576  -30.8798    0.0000 C   0  0  0  0  0  0  0  0  0  0  0  0
   21.0576  -31.8798    0.0000 C   0  0  0  0  0  0  0  0  0  0  0  0
   23.6557  -30.3798    0.0000 O   0  0  0  0  0  0  0  0  0  0  0  0
   23.6557  -32.3798    0.0000 O   0  0  0  0  0  0  0  0  0  0  0  0
   21.9235  -33.3798    0.0000 O   0  0  0  0  0  0  0  0  0  0  0  0
   20.1915  -30.3798    0.0000 C   0  0  0  0  0  0  0  0  0  0  0  0
   19.3255  -30.8798    0.0000 O   0  0  0  0  0  0  0  0  0  0  0  0
   24.5218  -27.8798    0.0000 C   0  0  0  0  0  0  0  0  0  0  0  0
   24.5218  -28.8798    0.0000 C   0  0  0  0  0  0  0  0  0  0  0  0
   23.6557  -27.3798    0.0000 O   0  0  0  0  0  0  0  0  0  0  0  0
   23.6557  -29.3798    0.0000 C   0  0  0  0  0  0  0  0  0  0  0  0
   22.7897  -27.8798    0.0000 C   0  0  0  0  0  0  0  0  0  0  0  0
   22.7897  -28.8798    0.0000 C   0  0  0  0  0  0  0  0  0  0  0  0
   25.3878  -27.3798    0.0000 O   0  0  0  0  0  0  0  0  0  0  0  0
   25.3878  -29.3798    0.0000 O   0  0  0  0  0  0  0  0  0  0  0  0
   21.9236  -29.3798    0.0000 O   0  0  0  0  0  0  0  0  0  0  0  0
   21.9236  -27.3798    0.0000 C   0  0  0  0  0  0  0  0  0  0  0  0
   21.0576  -27.8798    0.0000 O   0  0  0  0  0  0  0  0  0  0  0  0
   26.2538  -27.8797    0.0000 C   0  0  0  0  0  0  0  0  0  0  0  0
   27.1198  -27.3797    0.0000 C   0  0  0  0  0  0  0  0  0  0  0  0
   27.9858  -27.8797    0.0000 N   0  0  0  0  0  0  0  0  0  0  0  0
   21.9236  -26.3798    0.0000 O   0  0  0  0  0  0  0  0  0  0  0  0
  1  2  1  0     0  0
  1  3  1  0     0  0
  2  4  1  0     0  0
  3  5  1  0     0  0
  4  6  1  0     0  0
  5  6  1  0     0  0
  1  7  1  1     0  0
  2  8  1  6     0  0
  4  9  1  1     0  0
  6 10  1  6     0  0
  5 11  1  1     0  0
 12 11  1  0     0  0
 11 13  2  0     0  0
 14 15  1  0     0  0
 14 16  1  0     0  0
 15 17  1  0     0  0
 16 18  1  0     0  0
 17 19  1  0     0  0
 18 19  1  0     0  0
 14 20  1  1     0  0
 15 21  1  6     0  0
 17 22  1  1     0  0
 19  7  1  6     0  0
 18 23  1  1     0  0
 24 23  1  0     0  0
 25 26  1  0     0  0
 25 27  1  0     0  0
 26 28  1  0     0  0
 27 29  1  0     0  0
 28 30  1  0     0  0
 29 30  1  0     0  0
 25 31  1  1     0  0
 26 32  1  6     0  0
 28 20  1  1     0  0
 30 33  1  6     0  0
 29 34  1  1     0  0
 35 34  1  0     0  0
 31 36  1  0     0  0
 36 37  1  0     0  0
 37 38  1  0     0  0
 34 39  2  0     0  0
M  END
> <ID>
CHEBI:134032

> <NAME>
beta-D-GlcpA-(1->4)-beta-D-Glcp-(1->3)-beta-D-GlcpAOCH2CH2NH2

> <DEFINITION>
A β-D-glucoside that is the 2-aminoethyl glycoside of a trisaccharide consisting of β-D-glucuronosyl, β-D-glucosyl and β-D-glucuronosyl residues linked sequentially (1→4) and (1→3).

> <STAR>
3

> <SYNONYM>
GlcbetaA1-4Glcbeta1-3GlcbetaAOCH2CH2NH2; beta-D-GlcAp-(1->4)-beta-D-Glcp-(1->3)-beta-D-GlcpAO[CH2]2NH2; beta-D-GlcA-(1->4)-beta-D-Glc-(1->3)-beta-D-GlcAOCH2CH2NH2; beta-D-GlcA-(1->4)-beta-D-Glc-(1->3)-beta-D-GlcAO[CH2]2NH2; 2-aminoethyl beta-D-glucuronosyl-(1->4)-beta-D-glucosyl-(1->3)-beta-D-glucosiduronic acid

> <IUPAC_NAME>
2-aminoethyl beta-D-glucopyranuronosyl-(1->4)-beta-D-glucopyranosyl-(1->3)-beta-D-glucopyranosiduronic acid

> <FORMULA>
C20H33NO18

> <MASS>
575.473

> <MONOISOTOPIC_MASS>
575.16976

> <CHARGE>
0

> <SMILES>
[C@@H]1([C@@H]([C@H]([C@@H]([C@H](O1)C(O)=O)O)O)O)O[C@H]2[C@@H]([C@H]([C@@H](O[C@@H]2CO)O[C@@H]3[C@H]([C@@H](O[C@@H]([C@H]3O)C(O)=O)OCCN)O)O)O

> <INCHI>
InChI=1S/C20H33NO18/c21-1-2-34-18-11(29)13(10(28)15(38-18)17(32)33)37-19-9(27)7(25)12(4(3-22)35-19)36-20-8(26)5(23)6(24)14(39-20)16(30)31/h4-15,18-20,22-29H,1-3,21H2,(H,30,31)(H,32,33)/t4-,5+,6+,7-,8-,9-,10+,11-,12-,13+,14+,15+,18-,19+,20-/m1/s1

> <INCHIKEY>
SEPNSDGEFNOXLK-PJPYQPSJSA-N

> <PUBMED_CITATION>
27818299; 28275152

$$$$

Ketcher 11251610372D 1   1.00000     0.00000     0

 27 28  0     1  0            999 V2000
   49.2789  -30.1206    0.0000 C   0  0  0  0  0  0  0  0  0  0  0  0
   49.2789  -31.1206    0.0000 C   0  0  0  0  0  0  0  0  0  0  0  0
   48.4128  -29.6206    0.0000 O   0  0  0  0  0  0  0  0  0  0  0  0
   48.4128  -31.6206    0.0000 C   0  0  0  0  0  0  0  0  0  0  0  0
   47.5469  -30.1206    0.0000 C   0  0  0  0  0  0  0  0  0  0  0  0
   47.5469  -31.1206    0.0000 C   0  0  0  0  0  0  0  0  0  0  0  0
   50.1449  -29.6206    0.0000 O   0  0  0  0  0  0  0  0  0  0  0  0
   50.1449  -31.6206    0.0000 O   0  0  0  0  0  0  0  0  0  0  0  0
   48.4128  -32.6206    0.0000 O   0  0  0  0  0  0  0  0  0  0  0  0
   46.6808  -31.6206    0.0000 O   0  0  0  0  0  0  0  0  0  0  0  0
   46.6808  -29.6206    0.0000 C   0  0  0  0  0  0  0  0  0  0  0  0
   45.8148  -30.1206    0.0000 O   0  0  0  0  0  0  0  0  0  0  0  0
   51.0110  -30.1206    0.0000 C   0  0  0  0  0  0  0  0  0  0  0  0
   51.8770  -29.6206    0.0000 C   0  0  0  0  0  0  0  0  0  0  0  0
   52.7431  -30.1206    0.0000 N   0  0  0  0  0  0  0  0  0  0  0  0
   45.8148  -32.1206    0.0000 C   0  0  0  0  0  0  0  0  0  0  0  0
   45.8148  -33.1206    0.0000 C   0  0  0  0  0  0  0  0  0  0  0  0
   44.9488  -31.6206    0.0000 O   0  0  0  0  0  0  0  0  0  0  0  0
   44.9488  -33.6206    0.0000 C   0  0  0  0  0  0  0  0  0  0  0  0
   44.0828  -32.1206    0.0000 C   0  0  0  0  0  0  0  0  0  0  0  0
   44.0828  -33.1206    0.0000 C   0  0  0  0  0  0  0  0  0  0  0  0
   46.6808  -33.6206    0.0000 O   0  0  0  0  0  0  0  0  0  0  0  0
   44.9487  -34.6206    0.0000 O   0  0  0  0  0  0  0  0  0  0  0  0
   43.2167  -33.6206    0.0000 O   0  0  0  0  0  0  0  0  0  0  0  0
   43.2167  -31.6206    0.0000 C   0  0  0  0  0  0  0  0  0  0  0  0
   42.3507  -32.1206    0.0000 O   0  0  0  0  0  0  0  0  0  0  0  0
   43.2167  -30.6206    0.0000 O   0  0  0  0  0  0  0  0  0  0  0  0
  1  2  1  0     0  0
  1  3  1  0     0  0
  2  4  1  0     0  0
  3  5  1  0     0  0
  4  6  1  0     0  0
  5  6  1  0     0  0
  1  7  1  1     0  0
  2  8  1  6     0  0
  4  9  1  1     0  0
  6 10  1  6     0  0
  5 11  1  1     0  0
 12 11  1  0     0  0
  7 13  1  0     0  0
 13 14  1  0     0  0
 14 15  1  0     0  0
 16 17  1  0     0  0
 16 18  1  0     0  0
 17 19  1  0     0  0
 18 20  1  0     0  0
 19 21  1  0     0  0
 20 21  1  0     0  0
 16 10  1  1     0  0
 17 22  1  6     0  0
 19 23  1  1     0  0
 21 24  1  6     0  0
 20 25  1  1     0  0
 26 25  1  0     0  0
 25 27  2  0     0  0
M  END
> <ID>
CHEBI:134034

> <NAME>
beta-D-GlcpA-(1->4)-beta-D-GlcpOCH2CH2NH2

> <DEFINITION>
A β-D-glucoside that is the 2-aminoethyl glycoside of a disaccharide consisting of β-D-glucuronosyl and β-D-glucosyl residues linked (1→4).

> <STAR>
3

> <SYNONYM>
GlcbetaA1-4GlcbetaOCH2CH2NH2; beta-D-GlcA-(1->4)-beta-D-GlcOCH2CH2NH2; 2-aminoethyl beta-D-glucuronosyl-(1->4)-beta-D-glucoside; 2-aminoethyl 4-O-beta-D-glucopyranuronosyl-beta-D-glucopyranoside

> <IUPAC_NAME>
2-aminoethyl beta-D-glucopyranuronosyl-(1->4)-beta-D-glucopyranoside

> <FORMULA>
C14H25NO12

> <MASS>
399.348

> <MONOISOTOPIC_MASS>
399.13768

> <CHARGE>
0

> <SMILES>
[C@@H]1([C@@H]([C@H]([C@@H]([C@H](O1)CO)O[C@H]2[C@@H]([C@H]([C@@H]([C@H](O2)C(O)=O)O)O)O)O)O)OCCN

> <INCHI>
InChI=1S/C14H25NO12/c15-1-2-24-13-9(21)7(19)10(4(3-16)25-13)26-14-8(20)5(17)6(18)11(27-14)12(22)23/h4-11,13-14,16-21H,1-3,15H2,(H,22,23)/t4-,5+,6+,7-,8-,9-,10-,11+,13-,14-/m1/s1

> <INCHIKEY>
UGHCWDPHJGIYQY-CQFGMXIFSA-N

> <PUBMED_CITATION>
27818299; 28275152

$$$$

Ketcher 12131817502D 1   1.00000     0.00000     0

 22 23  0     0  0            999 V2000
   14.6167   -6.9303    0.0000 C   0  0  0  0  0  0  0  0  0  0  0  0
   13.7507   -7.4303    0.0000 N   0  0  0  0  0  0  0  0  0  0  0  0
   12.0188   -5.4304    0.0000 C   0  0  0  0  0  0  0  0  0  0  0  0
   15.4829   -7.4303    0.0000 N   0  0  0  0  0  0  0  0  0  0  0  0
   12.8847   -6.9303    0.0000 C   0  0  0  0  0  0  0  0  0  0  0  0
   11.1527   -5.9304    0.0000 C   0  0  0  0  0  0  0  0  0  0  0  0
   16.3488   -6.9303    0.0000 C   0  0  0  0  0  0  0  0  0  0  0  0
   12.0188   -7.4303    0.0000 C   0  0  0  0  0  0  0  0  0  0  0  0
   18.0809   -5.9304    0.0000 C   0  0  0  0  0  0  0  0  0  0  0  0
   10.2865   -5.4304    0.0000 Cl  0  0  0  0  0  0  0  0  0  0  0  0
   18.9470   -5.4304    0.0000 Cl  0  0  0  0  0  0  0  0  0  0  0  0
   17.2148   -7.4303    0.0000 C   0  0  0  0  0  0  0  0  0  0  0  0
   17.2148   -5.4304    0.0000 C   0  0  0  0  0  0  0  0  0  0  0  0
   12.8847   -5.9304    0.0000 C   0  0  0  0  0  0  0  0  0  0  0  0
   14.6167   -5.9304    0.0000 O   0  0  0  0  0  0  0  0  0  0  0  0
   16.3488   -5.9304    0.0000 C   0  0  0  0  0  0  0  0  0  0  0  0
   18.0809   -6.9303    0.0000 C   0  0  0  0  0  0  0  0  0  0  0  0
   18.9470   -7.4303    0.0000 C   0  0  0  0  0  0  0  0  0  0  0  0
   11.1527   -6.9303    0.0000 C   0  0  0  0  0  0  0  0  0  0  0  0
   18.9470   -8.4303    0.0000 F   0  0  0  0  0  0  0  0  0  0  0  0
   19.8131   -6.9302    0.0000 F   0  0  0  0  0  0  0  0  0  0  0  0
   18.9469   -6.4302    0.0000 F   0  0  0  0  0  0  0  0  0  0  0  0
  2  1  1  0     0  0
  4  1  1  0     0  0
 15  1  2  0     0  0
  5  2  1  0     0  0
 14  3  1  0     0  0
  6  3  2  0     0  0
  5 14  2  0     0  0
  7  4  1  0     0  0
  8  5  1  0     0  0
 19  6  1  0     0  0
 10  6  1  0     0  0
  8 19  2  0     0  0
 16  7  2  0     0  0
 12  7  1  0     0  0
 17  9  1  0     0  0
 11  9  1  0     0  0
 13  9  2  0     0  0
 13 16  1  0     0  0
 17 12  2  0     0  0
 17 18  1  0     0  0
 18 20  1  0     0  0
 18 21  1  0     0  0
 18 22  1  0     0  0
M  END
> <ID>
CHEBI:135477

> <NAME>
halocarban

> <DEFINITION>
A phenylurea that is urea substituted by 4-chlorophenyl and 4-chloro-3-trifluoromethylphenyl groups at positions 1 and 3 respectively. It is often used in deodarants and soaps on account of its anbacterial properties.

> <STAR>
3

> <SYNONYM>
trifluoromethyldichlorocarbanilide; N-(4-Chlorophenyl)-N'-(4-chloro-3-(trifluoromethyl)phenyl)urea; cloflucarban; 4,4'-Dichloro-3-(trifluoromethyl)carbanilide

> <IUPAC_NAME>
N-(4-chlorophenyl)-N'-[4-chloro-3-(trifluoromethyl)phenyl]urea

> <INN>
halocarbanum; halocarbano; halocarban; halocarban

> <FORMULA>
C14H9Cl2F3N2O

> <MASS>
349.136

> <MONOISOTOPIC_MASS>
348.00440

> <CHARGE>
0

> <SMILES>
C(NC1=CC=C(C=C1)Cl)(NC2=CC=C(C(=C2)C(F)(F)F)Cl)=O

> <INCHI>
InChI=1S/C14H9Cl2F3N2O/c15-8-1-3-9(4-2-8)20-13(22)21-10-5-6-12(16)11(7-10)14(17,18)19/h1-7H,(H2,20,21,22)

> <INCHIKEY>
ZFSXZJXLKAJIGS-UHFFFAOYSA-N

> <CAS_REGISTRY_NUMBER>
369-77-7

> <CHEMIDPLUS>
369-77-7

> <PUBMED_CITATION>
30033524

$$$$

Marvin  04191316172D          

 17 18  0  0  0  0            999 V2000
    5.5038   -3.3589    0.0000 C   0  0  0  0  0  0  0  0  0  0  0  0
    4.4238   -4.1434    0.0000 N   0  0  0  0  0  0  0  0  0  0  0  0
    3.6269   -4.3571    0.0000 C   0  0  0  0  0  0  0  0  0  0  0  0
    4.6787   -3.3589    0.0000 C   0  0  0  0  0  0  0  0  0  0  0  0
    4.2662   -2.6445    0.0000 C   0  0  0  0  0  0  0  0  0  0  0  0
    5.0913   -4.6284    0.0000 N   0  0  0  0  0  0  0  0  0  0  0  0
    5.0913   -5.4534    0.0000 C   0  0  0  0  0  0  0  0  0  0  0  0
    5.0913   -7.1033    0.0000 C   0  0  0  0  0  0  0  0  0  0  0  0
    5.8057   -6.6909    0.0000 C   0  0  0  0  0  0  0  0  0  0  0  0
    5.8057   -5.8659    0.0000 C   0  0  0  0  0  0  0  0  0  0  0  0
    4.3768   -5.8659    0.0000 C   0  0  0  0  0  0  0  0  0  0  0  0
    4.3768   -6.6909    0.0000 C   0  0  0  0  0  0  0  0  0  0  0  0
    5.7587   -4.1434    0.0000 C   0  0  0  0  0  0  0  0  0  0  0  0
    6.5556   -4.3571    0.0000 O   0  0  0  0  0  0  0  0  0  0  0  0
    5.9163   -2.6445    0.0000 C   0  0  0  0  0  0  0  0  0  0  0  0
    6.7413   -2.6445    0.0000 C   0  0  0  0  0  0  0  0  0  0  0  0
    5.5038   -1.9300    0.0000 C   0  0  0  0  0  0  0  0  0  0  0  0
  6 13  1  0  0  0  0
  6  2  1  0  0  0  0
 13  1  1  0  0  0  0
  1  4  2  0  0  0  0
  4  2  1  0  0  0  0
  2  3  1  0  0  0  0
  4  5  1  0  0  0  0
  6  7  1  0  0  0  0
 10  7  2  0  0  0  0
  7 11  1  0  0  0  0
  8  9  2  0  0  0  0
  8 12  1  0  0  0  0
  9 10  1  0  0  0  0
 11 12  2  0  0  0  0
 13 14  2  0  0  0  0
  1 15  1  0  0  0  0
 15 16  1  0  0  0  0
 15 17  1  0  0  0  0
M  END
> <ID>
CHEBI:135538

> <NAME>
propyphenazone

> <DEFINITION>
A pyrazolone derivative that is antipyrine substituted at C-4 by an isopropyl group.

> <STAR>
3

> <SECONDARY_ID>
CHEBI:31732

> <SYNONYM>
Isopropylphenazone; Isopropylantipyrine; 4-Isopropylantipyrine; 4-Isopropyl-1,5-dimethyl-2-phenyl-1,2-dihydro-pyrazol-3-one; 1-Phenyl-2,3-dimethyl-4-isopropylpyrazol-5-one; 1-Phenyl-2,3-dimethyl-4-isopropyl-3-pyrazolin-5-one

> <IUPAC_NAME>
1,5-dimethyl-2-phenyl-4-(propan-2-yl)-1,2-dihydro-3H-pyrazol-3-one

> <INN>
propyphenazonum; propyphenazone; propifenazona

> <FORMULA>
C14H18N2O

> <MASS>
230.30550

> <MONOISOTOPIC_MASS>
230.14191

> <CHARGE>
0

> <SMILES>
CC(C)c1c(C)n(C)n(-c2ccccc2)c1=O

> <INCHI>
InChI=1S/C14H18N2O/c1-10(2)13-11(3)15(4)16(14(13)17)12-8-6-5-7-9-12/h5-10H,1-4H3

> <INCHIKEY>
PXWLVJLKJGVOKE-UHFFFAOYSA-N

> <BEILSTEIN_REGISTRY_NUMBER>
204533

> <CAS_REGISTRY_NUMBER>
479-92-5

> <REAXYS_REGISTRY_NUMBER>
204533

> <CHEMIDPLUS>
479-92-5

> <KEGG_DRUG_ACCESSION>
D01380

> <WIKIPEDIA_ACCESSION>
Propyphenazone

> <PUBMED_CITATION>
12097837; 21684706; 23277879; 25221653; 26319751; 3425858

$$$$

Ketcher 04061713182D 1   1.00000     0.00000     0

 49 52  0     1  0            999 V2000
   11.2267  -63.3130    0.0000 C   0  0  0  0  0  0  0  0  0  0  0  0
   11.2267  -64.3130    0.0000 C   0  0  0  0  0  0  0  0  0  0  0  0
   10.3606  -62.8130    0.0000 O   0  0  0  0  0  0  0  0  0  0  0  0
   10.3606  -64.8130    0.0000 C   0  0  0  0  0  0  0  0  0  0  0  0
    9.4946  -63.3130    0.0000 C   0  0  0  0  0  0  0  0  0  0  0  0
    9.4946  -64.3130    0.0000 C   0  0  0  0  0  0  0  0  0  0  0  0
   12.0927  -62.8130    0.0000 O   0  0  0  0  0  0  0  0  0  0  0  0
   12.0927  -64.8130    0.0000 O   0  0  0  0  0  0  0  0  0  0  0  0
   10.3606  -65.8130    0.0000 O   0  0  0  0  0  0  0  0  0  0  0  0
    8.6286  -64.8130    0.0000 O   0  0  0  0  0  0  0  0  0  0  0  0
    8.6286  -62.8130    0.0000 C   0  0  0  0  0  0  0  0  0  0  0  0
    7.7626  -63.3130    0.0000 O   0  0  0  0  0  0  0  0  0  0  0  0
    8.6286  -61.8130    0.0000 O   0  0  0  0  0  0  0  0  0  0  0  0
   14.6908  -61.3130    0.0000 C   0  0  0  0  0  0  0  0  0  0  0  0
   14.6908  -62.3130    0.0000 C   0  0  0  0  0  0  0  0  0  0  0  0
   13.8248  -60.8130    0.0000 O   0  0  0  0  0  0  0  0  0  0  0  0
   13.8248  -62.8130    0.0000 C   0  0  0  0  0  0  0  0  0  0  0  0
   12.9587  -61.3130    0.0000 C   0  0  0  0  0  0  0  0  0  0  0  0
   12.9587  -62.3130    0.0000 C   0  0  0  0  0  0  0  0  0  0  0  0
   15.5569  -60.8130    0.0000 O   0  0  0  0  0  0  0  0  0  0  0  0
   15.5569  -62.8130    0.0000 O   0  0  0  0  0  0  0  0  0  0  0  0
   13.8248  -63.8130    0.0000 O   0  0  0  0  0  0  0  0  0  0  0  0
   12.0927  -60.8130    0.0000 C   0  0  0  0  0  0  0  0  0  0  0  0
   11.2267  -61.3130    0.0000 O   0  0  0  0  0  0  0  0  0  0  0  0
   18.1550  -59.3130    0.0000 C   0  0  0  0  0  0  0  0  0  0  0  0
   18.1550  -60.3130    0.0000 C   0  0  0  0  0  0  0  0  0  0  0  0
   17.2889  -58.8130    0.0000 O   0  0  0  0  0  0  0  0  0  0  0  0
   17.2889  -60.8130    0.0000 C   0  0  0  0  0  0  0  0  0  0  0  0
   16.4229  -59.3130    0.0000 C   0  0  0  0  0  0  0  0  0  0  0  0
   16.4229  -60.3130    0.0000 C   0  0  0  0  0  0  0  0  0  0  0  0
   19.0210  -58.8130    0.0000 O   0  0  0  0  0  0  0  0  0  0  0  0
   19.0210  -60.8130    0.0000 O   0  0  0  0  0  0  0  0  0  0  0  0
   17.2889  -61.8130    0.0000 O   0  0  0  0  0  0  0  0  0  0  0  0
   15.5569  -58.8130    0.0000 C   0  0  0  0  0  0  0  0  0  0  0  0
   14.6908  -59.3130    0.0000 O   0  0  0  0  0  0  0  0  0  0  0  0
   21.6191  -57.3130    0.0000 C   0  0  0  0  0  0  0  0  0  0  0  0
   21.6191  -58.3130    0.0000 C   0  0  0  0  0  0  0  0  0  0  0  0
   20.7530  -56.8130    0.0000 O   0  0  0  0  0  0  0  0  0  0  0  0
   20.7530  -58.8130    0.0000 C   0  0  0  0  0  0  0  0  0  0  0  0
   19.8870  -57.3130    0.0000 C   0  0  0  0  0  0  0  0  0  0  0  0
   19.8870  -58.3130    0.0000 C   0  0  0  0  0  0  0  0  0  0  0  0
   22.4851  -56.8130    0.0000 O   0  0  0  0  0  0  0  0  0  0  0  0
   22.4851  -58.8130    0.0000 O   0  0  0  0  0  0  0  0  0  0  0  0
   20.7530  -59.8130    0.0000 O   0  0  0  0  0  0  0  0  0  0  0  0
   19.0210  -56.8130    0.0000 C   0  0  0  0  0  0  0  0  0  0  0  0
   18.1550  -57.3130    0.0000 O   0  0  0  0  0  0  0  0  0  0  0  0
   23.3511  -57.3130    0.0000 C   0  0  0  0  0  0  0  0  0  0  0  0
   24.2171  -56.8130    0.0000 C   0  0  0  0  0  0  0  0  0  0  0  0
   25.0831  -57.3130    0.0000 N   0  0  0  0  0  0  0  0  0  0  0  0
  1  2  1  0     0  0
  1  3  1  0     0  0
  2  4  1  0     0  0
  3  5  1  0     0  0
  4  6  1  0     0  0
  5  6  1  0     0  0
  1  7  1  1     0  0
  2  8  1  6     0  0
  4  9  1  1     0  0
  6 10  1  6     0  0
  5 11  1  1     0  0
 12 11  1  0     0  0
 11 13  2  0     0  0
 14 15  1  0     0  0
 14 16  1  0     0  0
 15 17  1  0     0  0
 16 18  1  0     0  0
 17 19  1  0     0  0
 18 19  1  0     0  0
 14 20  1  1     0  0
 15 21  1  6     0  0
 17 22  1  1     0  0
 19  7  1  6     0  0
 18 23  1  1     0  0
 24 23  1  0     0  0
 25 26  1  0     0  0
 25 27  1  0     0  0
 26 28  1  0     0  0
 27 29  1  0     0  0
 28 30  1  0     0  0
 29 30  1  0     0  0
 25 31  1  6     0  0
 26 32  1  6     0  0
 28 33  1  1     0  0
 30 20  1  6     0  0
 29 34  1  1     0  0
 35 34  1  0     0  0
 36 37  1  0     0  0
 36 38  1  0     0  0
 37 39  1  0     0  0
 38 40  1  0     0  0
 39 41  1  0     0  0
 40 41  1  0     0  0
 36 42  1  6     0  0
 37 43  1  6     0  0
 39 44  1  1     0  0
 41 31  1  1     0  0
 40 45  1  1     0  0
 46 45  1  0     0  0
 42 47  1  0     0  0
 47 48  1  0     0  0
 48 49  1  0     0  0
M  END
> <ID>
CHEBI:136745

> <NAME>
beta-D-GlcpA-(1->4)-beta-D-Glcp-(1->4)-alpha-D-Glcp-(1->4)-alpha-D-GalpO[CH2]2NH2

> <DEFINITION>
An α-D-galactoside that is the 2-aminoethyl glycoside of a tetrasaccharide consisting of β-D-glucuronosyl, β-D-glucosyl, α-D-glucosyl and α-D-galactosyl residues linked sequentially (1→4).

> <STAR>
3

> <SYNONYM>
GlcAbeta1-4Glcbeta1-4Glcalpha1-4GalalphaO[CH2]2NH2; beta-D-GlcA-(1->4)-beta-D-Glc-(1->4)-alpha-D-Glc-(1->4)-alpha-D-GalO[CH2]2NH2; 2-aminoethyl beta-D-glucuronosyl-(1->4)-beta-D-glucosyl-(1->4)-alpha-D-glucosyl-(1->4)-alpha-D-galactoside; 2-aminoethyl (beta-D-glucopyranosyluronic acid)-(1->4)-beta-D-glucopyranosyl-(1->4)-alpha-D-glucopyranosyl-(1->4)-alpha-D-galactopyranoside

> <IUPAC_NAME>
2-aminoethyl beta-D-glucopyranuronosyl-(1->4)-beta-D-glucopyranosyl-(1->4)-alpha-D-glucopyranosyl-(1->4)-alpha-D-galactopyranoside

> <FORMULA>
C26H45NO22

> <MASS>
723.630

> <MONOISOTOPIC_MASS>
723.24332

> <CHARGE>
0

> <SMILES>
[C@@H]1([C@@H]([C@H]([C@@H]([C@H](O1)C(O)=O)O)O)O)O[C@H]2[C@@H]([C@H]([C@@H](O[C@@H]2CO)O[C@H]3[C@@H]([C@H]([C@H](O[C@@H]3CO)O[C@@H]4[C@@H]([C@H]([C@H](O[C@@H]4CO)OCCN)O)O)O)O)O)O

> <INCHI>
InChI=1S/C26H45NO22/c27-1-2-42-23-15(37)11(33)18(6(3-28)43-23)46-24-16(38)12(34)19(7(4-29)44-24)47-25-17(39)13(35)20(8(5-30)45-25)48-26-14(36)9(31)10(32)21(49-26)22(40)41/h6-21,23-26,28-39H,1-5,27H2,(H,40,41)/t6-,7-,8-,9+,10+,11-,12-,13-,14-,15-,16-,17-,18+,19-,20-,21+,23+,24-,25+,26-/m1/s1

> <INCHIKEY>
DKGIWLPHFLMLAK-WDYGPGNMSA-N

> <PUBMED_CITATION>
28275152

$$$$

Ketcher 04061713292D 1   1.00000     0.00000     0

 26 27  0     1  0            999 V2000
   13.0027  -71.7529    0.0000 O   0  0  0  0  0  0  0  0  0  0  0  0
   15.6008  -70.2529    0.0000 C   0  0  0  0  0  0  0  0  0  0  0  0
   15.6008  -71.2529    0.0000 C   0  0  0  0  0  0  0  0  0  0  0  0
   14.7347  -69.7529    0.0000 O   0  0  0  0  0  0  0  0  0  0  0  0
   14.7347  -71.7529    0.0000 C   0  0  0  0  0  0  0  0  0  0  0  0
   13.8687  -70.2529    0.0000 C   0  0  0  0  0  0  0  0  0  0  0  0
   13.8687  -71.2529    0.0000 C   0  0  0  0  0  0  0  0  0  0  0  0
   16.4668  -69.7529    0.0000 O   0  0  0  0  0  0  0  0  0  0  0  0
   16.4668  -71.7529    0.0000 O   0  0  0  0  0  0  0  0  0  0  0  0
   14.7347  -72.7529    0.0000 O   0  0  0  0  0  0  0  0  0  0  0  0
   13.0027  -69.7529    0.0000 C   0  0  0  0  0  0  0  0  0  0  0  0
   12.1367  -70.2529    0.0000 O   0  0  0  0  0  0  0  0  0  0  0  0
   19.0649  -68.2529    0.0000 C   0  0  0  0  0  0  0  0  0  0  0  0
   19.0649  -69.2529    0.0000 C   0  0  0  0  0  0  0  0  0  0  0  0
   18.1988  -67.7529    0.0000 O   0  0  0  0  0  0  0  0  0  0  0  0
   18.1988  -69.7529    0.0000 C   0  0  0  0  0  0  0  0  0  0  0  0
   17.3328  -68.2529    0.0000 C   0  0  0  0  0  0  0  0  0  0  0  0
   17.3328  -69.2529    0.0000 C   0  0  0  0  0  0  0  0  0  0  0  0
   19.9310  -67.7529    0.0000 O   0  0  0  0  0  0  0  0  0  0  0  0
   19.9310  -69.7529    0.0000 O   0  0  0  0  0  0  0  0  0  0  0  0
   18.1988  -70.7529    0.0000 O   0  0  0  0  0  0  0  0  0  0  0  0
   16.4668  -67.7529    0.0000 C   0  0  0  0  0  0  0  0  0  0  0  0
   15.6008  -68.2529    0.0000 O   0  0  0  0  0  0  0  0  0  0  0  0
   20.7970  -68.2529    0.0000 C   0  0  0  0  0  0  0  0  0  0  0  0
   21.6630  -67.7529    0.0000 C   0  0  0  0  0  0  0  0  0  0  0  0
   22.5290  -68.2528    0.0000 N   0  0  0  0  0  0  0  0  0  0  0  0
  2  3  1  0     0  0
  2  4  1  0     0  0
  3  5  1  0     0  0
  4  6  1  0     0  0
  5  7  1  0     0  0
  6  7  1  0     0  0
  2  8  1  6     0  0
  3  9  1  6     0  0
  5 10  1  1     0  0
  7  1  1  6     0  0
  6 11  1  1     0  0
 12 11  1  0     0  0
 13 14  1  0     0  0
 13 15  1  0     0  0
 14 16  1  0     0  0
 15 17  1  0     0  0
 16 18  1  0     0  0
 17 18  1  0     0  0
 13 19  1  6     0  0
 14 20  1  6     0  0
 16 21  1  1     0  0
 18  8  1  1     0  0
 17 22  1  1     0  0
 23 22  1  0     0  0
 19 24  1  0     0  0
 24 25  1  0     0  0
 25 26  1  0     0  0
M  END
> <ID>
CHEBI:136747

> <NAME>
alpha-D-Glcp-(1->4)-alpha-D-GalpO[CH2]2NH2

> <DEFINITION>
An α-D-galactoside that is the 2-aminoethyl glycoside of a disaccharide consisting of α-D-glucosyl and α-D-galactosyl residues linked (1→4).

> <STAR>
3

> <SYNONYM>
Glcalpha1-4GalalphaO[CH2]2NH2; alpha-D-Glc-(1->4)-alpha-D-GalO[CH2]2NH2; 2-aminoethyl alpha-D-glucosyl-(1->4)-alpha-D-galactoside; 2-aminoethyl 4-O-alpha-D-glucopyranosyl-alpha-D-galactopyranoside

> <IUPAC_NAME>
2-aminoethyl alpha-D-glucopyranosyl-(1->4)-alpha-D-galactopyranoside

> <FORMULA>
C14H27NO11

> <MASS>
385.365

> <MONOISOTOPIC_MASS>
385.15841

> <CHARGE>
0

> <SMILES>
O[C@H]1[C@@H]([C@H]([C@H](O[C@@H]1CO)O[C@@H]2[C@@H]([C@H]([C@H](O[C@@H]2CO)OCCN)O)O)O)O

> <INCHI>
InChI=1S/C14H27NO11/c15-1-2-23-13-11(22)9(20)12(6(4-17)25-13)26-14-10(21)8(19)7(18)5(3-16)24-14/h5-14,16-22H,1-4,15H2/t5-,6-,7-,8+,9-,10-,11-,12+,13+,14-/m1/s1

> <INCHIKEY>
NYYJQOXDRKDQEO-CDSZQXIASA-N

> <REAXYS_REGISTRY_NUMBER>
29433957

> <PUBMED_CITATION>
28275152

$$$$

Ketcher 04101712532D 1   1.00000     0.00000     0

 37 39  0     1  0            999 V2000
    9.0219  -25.2529    0.0000 C   0  0  0  0  0  0  0  0  0  0  0  0
    9.0219  -26.2529    0.0000 C   0  0  0  0  0  0  0  0  0  0  0  0
    8.1558  -24.7529    0.0000 O   0  0  0  0  0  0  0  0  0  0  0  0
    8.1558  -26.7529    0.0000 C   0  0  0  0  0  0  0  0  0  0  0  0
    7.2898  -25.2529    0.0000 C   0  0  0  0  0  0  0  0  0  0  0  0
    7.2898  -26.2529    0.0000 C   0  0  0  0  0  0  0  0  0  0  0  0
    9.8879  -24.7529    0.0000 O   0  0  0  0  0  0  0  0  0  0  0  0
    9.8879  -26.7529    0.0000 O   0  0  0  0  0  0  0  0  0  0  0  0
    8.1558  -27.7529    0.0000 O   0  0  0  0  0  0  0  0  0  0  0  0
    6.4238  -26.7529    0.0000 O   0  0  0  0  0  0  0  0  0  0  0  0
    6.4238  -24.7529    0.0000 C   0  0  0  0  0  0  0  0  0  0  0  0
    5.5578  -25.2529    0.0000 O   0  0  0  0  0  0  0  0  0  0  0  0
   12.4861  -23.2529    0.0000 C   0  0  0  0  0  0  0  0  0  0  0  0
   12.4861  -24.2529    0.0000 C   0  0  0  0  0  0  0  0  0  0  0  0
   11.6200  -22.7529    0.0000 O   0  0  0  0  0  0  0  0  0  0  0  0
   11.6200  -24.7529    0.0000 C   0  0  0  0  0  0  0  0  0  0  0  0
   10.7540  -23.2529    0.0000 C   0  0  0  0  0  0  0  0  0  0  0  0
   10.7540  -24.2529    0.0000 C   0  0  0  0  0  0  0  0  0  0  0  0
   13.3521  -22.7529    0.0000 O   0  0  0  0  0  0  0  0  0  0  0  0
   13.3521  -24.7529    0.0000 O   0  0  0  0  0  0  0  0  0  0  0  0
   11.6200  -25.7529    0.0000 O   0  0  0  0  0  0  0  0  0  0  0  0
    9.8879  -22.7529    0.0000 C   0  0  0  0  0  0  0  0  0  0  0  0
    9.0219  -23.2529    0.0000 O   0  0  0  0  0  0  0  0  0  0  0  0
   15.9502  -21.2529    0.0000 C   0  0  0  0  0  0  0  0  0  0  0  0
   15.9502  -22.2529    0.0000 C   0  0  0  0  0  0  0  0  0  0  0  0
   15.0841  -20.7529    0.0000 O   0  0  0  0  0  0  0  0  0  0  0  0
   15.0841  -22.7529    0.0000 C   0  0  0  0  0  0  0  0  0  0  0  0
   14.2181  -21.2529    0.0000 C   0  0  0  0  0  0  0  0  0  0  0  0
   14.2181  -22.2529    0.0000 C   0  0  0  0  0  0  0  0  0  0  0  0
   16.8162  -20.7529    0.0000 O   0  0  0  0  0  0  0  0  0  0  0  0
   16.8162  -22.7529    0.0000 O   0  0  0  0  0  0  0  0  0  0  0  0
   15.0841  -23.7529    0.0000 O   0  0  0  0  0  0  0  0  0  0  0  0
   13.3521  -20.7529    0.0000 C   0  0  0  0  0  0  0  0  0  0  0  0
   12.4861  -21.2529    0.0000 O   0  0  0  0  0  0  0  0  0  0  0  0
   17.6822  -21.2529    0.0000 C   0  0  0  0  0  0  0  0  0  0  0  0
   18.5482  -20.7529    0.0000 C   0  0  0  0  0  0  0  0  0  0  0  0
   19.4142  -21.2529    0.0000 N   0  0  0  0  0  0  0  0  0  0  0  0
  1  2  1  0     0  0
  1  3  1  0     0  0
  2  4  1  0     0  0
  3  5  1  0     0  0
  4  6  1  0     0  0
  5  6  1  0     0  0
  1  7  1  1     0  0
  2  8  1  6     0  0
  4  9  1  1     0  0
  6 10  1  6     0  0
  5 11  1  1     0  0
 12 11  1  0     0  0
 13 14  1  0     0  0
 13 15  1  0     0  0
 14 16  1  0     0  0
 15 17  1  0     0  0
 16 18  1  0     0  0
 17 18  1  0     0  0
 13 19  1  6     0  0
 14 20  1  6     0  0
 16 21  1  1     0  0
 18  7  1  6     0  0
 17 22  1  1     0  0
 23 22  1  0     0  0
 24 25  1  0     0  0
 24 26  1  0     0  0
 25 27  1  0     0  0
 26 28  1  0     0  0
 27 29  1  0     0  0
 28 29  1  0     0  0
 24 30  1  6     0  0
 25 31  1  6     0  0
 27 32  1  1     0  0
 29 19  1  1     0  0
 28 33  1  1     0  0
 34 33  1  0     0  0
 30 35  1  0     0  0
 35 36  1  0     0  0
 36 37  1  0     0  0
M  END
> <ID>
CHEBI:136764

> <NAME>
beta-D-Glcp-(1->4)-alpha-D-Glcp-(1->4)-alpha-D-GalpOCH2CH2NH2

> <DEFINITION>
An α-D-glucoside that is the 2-aminoethyl glycoside of a trisaccharide consisting of  β-D-glucosyl, α-D-glucosyl and α-D-galactosyl residues linked sequentially (1→4).

> <STAR>
3

> <SYNONYM>
Glcbeta1-4Glcalpha1-4GalalphaOCH2CH2NH2; beta-D-Glcp-(1->4)-alpha-D-Glcp-(1->4)-alpha-D-GalpO[CH2]2NH2; beta-D-Glc-(1->4)-alpha-D-Glc-(1->4)-alpha-D-GalOCH2CH2NH2; beta-D-Glc-(1->3)-alpha-D-Glc-(1->4)-alpha-D-GalO[CH2]2NH2; 2-aminoethyl beta-D-glucosyl-(1->4)-alpha-D-glucosyl-(1->4)-alpha-D-galactoside

> <IUPAC_NAME>
2-aminoethyl beta-D-glucopyranosyl-(1->4)-alpha-D-glucopyranosyl-(1->4)-alpha-D-galactopyranoside

> <FORMULA>
C20H37NO16

> <MASS>
547.506

> <MONOISOTOPIC_MASS>
547.21123

> <CHARGE>
0

> <SMILES>
[C@@H]1([C@@H]([C@H]([C@@H]([C@H](O1)CO)O)O)O)O[C@H]2[C@@H]([C@H]([C@H](O[C@@H]2CO)O[C@@H]3[C@@H]([C@H]([C@H](O[C@@H]3CO)OCCN)O)O)O)O

> <INCHI>
InChI=1S/C20H37NO16/c21-1-2-32-18-14(30)11(27)16(7(4-23)34-18)37-20-15(31)12(28)17(8(5-24)35-20)36-19-13(29)10(26)9(25)6(3-22)33-19/h6-20,22-31H,1-5,21H2/t6-,7-,8-,9-,10+,11-,12-,13-,14-,15-,16+,17-,18+,19+,20-/m1/s1

> <INCHIKEY>
DBTNJTQCWLYRTK-BRUKQSBASA-N

> <REAXYS_REGISTRY_NUMBER>
29433973

> <PUBMED_CITATION>
28275152

$$$$

Ketcher 04101716282D 1   1.00000     0.00000     0

 48 51  0     1  0            999 V2000
   17.7547  -27.3131    0.0000 C   0  0  0  0  0  0  0  0  0  0  0  0
   17.7547  -28.3131    0.0000 C   0  0  0  0  0  0  0  0  0  0  0  0
   16.8886  -26.8131    0.0000 O   0  0  0  0  0  0  0  0  0  0  0  0
   16.8886  -28.8131    0.0000 C   0  0  0  0  0  0  0  0  0  0  0  0
   16.0226  -27.3131    0.0000 C   0  0  0  0  0  0  0  0  0  0  0  0
   16.0226  -28.3131    0.0000 C   0  0  0  0  0  0  0  0  0  0  0  0
   18.6207  -26.8131    0.0000 O   0  0  0  0  0  0  0  0  0  0  0  0
   18.6207  -28.8132    0.0000 O   0  0  0  0  0  0  0  0  0  0  0  0
   16.8886  -29.8131    0.0000 O   0  0  0  0  0  0  0  0  0  0  0  0
   15.1566  -28.8131    0.0000 O   0  0  0  0  0  0  0  0  0  0  0  0
   15.1566  -26.8132    0.0000 C   0  0  0  0  0  0  0  0  0  0  0  0
   14.2906  -27.3132    0.0000 O   0  0  0  0  0  0  0  0  0  0  0  0
   21.2188  -25.3131    0.0000 C   0  0  0  0  0  0  0  0  0  0  0  0
   21.2188  -26.3131    0.0000 C   0  0  0  0  0  0  0  0  0  0  0  0
   20.3527  -24.8131    0.0000 O   0  0  0  0  0  0  0  0  0  0  0  0
   20.3527  -26.8131    0.0000 C   0  0  0  0  0  0  0  0  0  0  0  0
   19.4867  -25.3131    0.0000 C   0  0  0  0  0  0  0  0  0  0  0  0
   19.4867  -26.3131    0.0000 C   0  0  0  0  0  0  0  0  0  0  0  0
   22.0848  -24.8131    0.0000 O   0  0  0  0  0  0  0  0  0  0  0  0
   22.0848  -26.8132    0.0000 O   0  0  0  0  0  0  0  0  0  0  0  0
   20.3527  -27.8131    0.0000 O   0  0  0  0  0  0  0  0  0  0  0  0
   18.6207  -24.8131    0.0000 C   0  0  0  0  0  0  0  0  0  0  0  0
   17.7547  -25.3132    0.0000 O   0  0  0  0  0  0  0  0  0  0  0  0
   24.6829  -23.3132    0.0000 C   0  0  0  0  0  0  0  0  0  0  0  0
   24.6829  -24.3132    0.0000 C   0  0  0  0  0  0  0  0  0  0  0  0
   23.8168  -22.8132    0.0000 O   0  0  0  0  0  0  0  0  0  0  0  0
   23.8168  -24.8131    0.0000 C   0  0  0  0  0  0  0  0  0  0  0  0
   22.9508  -23.3132    0.0000 C   0  0  0  0  0  0  0  0  0  0  0  0
   22.9508  -24.3132    0.0000 C   0  0  0  0  0  0  0  0  0  0  0  0
   25.5489  -22.8132    0.0000 O   0  0  0  0  0  0  0  0  0  0  0  0
   25.5489  -24.8131    0.0000 O   0  0  0  0  0  0  0  0  0  0  0  0
   23.8168  -25.8131    0.0000 O   0  0  0  0  0  0  0  0  0  0  0  0
   22.0848  -22.8132    0.0000 C   0  0  0  0  0  0  0  0  0  0  0  0
   21.2188  -23.3132    0.0000 O   0  0  0  0  0  0  0  0  0  0  0  0
   26.4149  -23.3132    0.0000 C   0  0  0  0  0  0  0  0  0  0  0  0
   27.2810  -22.8132    0.0000 C   0  0  0  0  0  0  0  0  0  0  0  0
   28.1470  -23.3132    0.0000 N   0  0  0  0  0  0  0  0  0  0  0  0
   14.2906  -29.3132    0.0000 C   0  0  0  0  0  0  0  0  0  0  0  0
   14.2906  -30.3132    0.0000 C   0  0  0  0  0  0  0  0  0  0  0  0
   13.4245  -28.8132    0.0000 O   0  0  0  0  0  0  0  0  0  0  0  0
   13.4245  -30.8132    0.0000 C   0  0  0  0  0  0  0  0  0  0  0  0
   12.5585  -29.3132    0.0000 C   0  0  0  0  0  0  0  0  0  0  0  0
   12.5585  -30.3132    0.0000 C   0  0  0  0  0  0  0  0  0  0  0  0
   15.1566  -30.8132    0.0000 O   0  0  0  0  0  0  0  0  0  0  0  0
   13.4245  -31.8131    0.0000 O   0  0  0  0  0  0  0  0  0  0  0  0
   11.6924  -30.8131    0.0000 O   0  0  0  0  0  0  0  0  0  0  0  0
   11.6924  -28.8132    0.0000 C   0  0  0  0  0  0  0  0  0  0  0  0
   10.8264  -29.3132    0.0000 O   0  0  0  0  0  0  0  0  0  0  0  0
  1  2  1  0     0  0
  1  3  1  0     0  0
  2  4  1  0     0  0
  3  5  1  0     0  0
  4  6  1  0     0  0
  5  6  1  0     0  0
  1  7  1  1     0  0
  2  8  1  6     0  0
  4  9  1  1     0  0
  6 10  1  6     0  0
  5 11  1  1     0  0
 12 11  1  0     0  0
 13 14  1  0     0  0
 13 15  1  0     0  0
 14 16  1  0     0  0
 15 17  1  0     0  0
 16 18  1  0     0  0
 17 18  1  0     0  0
 13 19  1  6     0  0
 14 20  1  6     0  0
 16 21  1  1     0  0
 18  7  1  6     0  0
 17 22  1  1     0  0
 23 22  1  0     0  0
 24 25  1  0     0  0
 24 26  1  0     0  0
 25 27  1  0     0  0
 26 28  1  0     0  0
 27 29  1  0     0  0
 28 29  1  0     0  0
 24 30  1  6     0  0
 25 31  1  6     0  0
 27 32  1  1     0  0
 29 19  1  1     0  0
 28 33  1  1     0  0
 34 33  1  0     0  0
 30 35  1  0     0  0
 35 36  1  0     0  0
 36 37  1  0     0  0
 38 39  1  0     0  0
 38 40  1  0     0  0
 39 41  1  0     0  0
 40 42  1  0     0  0
 41 43  1  0     0  0
 42 43  1  0     0  0
 38 10  1  1     0  0
 39 44  1  6     0  0
 41 45  1  1     0  0
 43 46  1  6     0  0
 42 47  1  1     0  0
 48 47  1  0     0  0
M  END
> <ID>
CHEBI:136776

> <NAME>
beta-D-Glcp-(1->4)-beta-D-Glcp-(1->4)-alpha-D-Glcp-(1->4)-alpha-D-GalpOCH2CH2NH2

> <DEFINITION>
An α-D-glucoside that is the 2-aminoethyl glycoside of a tetrasaccharide consisting of two β-D-glucosyl residues, an α-D-glucosyl residue and (at the reducing end) an α-D-galactosyl residue, all linked sequentially (1→4).

> <STAR>
3

> <SYNONYM>
Glcbeta1-4Glcbeta1-4Glcalpha1-4GalalphaOCH2CH2NH2; beta-D-Glcp-(1->4)-beta-D-Glcp-(1->4)-alpha-D-Glcp-(1->4)-alpha-D-GalpO[CH2]2NH2; beta-D-Glc-(1->4)-beta-D-Glc-(1->4)-alpha-D-Glc-(1->4)-alpha-D-GalOCH2CH2NH2; beta-D-Glc-(1->4)-beta-D-Glc-(1->4)-alpha-D-Glc-(1->4)-alpha-D-GalO[CH2]2NH2; 2-aminoethyl beta-D-glucosyl-(1->4)-beta-D-glucosyl-(1->4)-alpha-D-glucosyl-(1->4)-alpha-D-galactoside

> <IUPAC_NAME>
2-aminoethyl beta-D-glucopyranosyl-(1->4)-beta-D-glucopyranosyl-(1->4)-alpha-D-glucopyranosyl-(1->4)-alpha-D-galactopyranoside

> <FORMULA>
C26H47NO21

> <MASS>
709.647

> <MONOISOTOPIC_MASS>
709.26406

> <CHARGE>
0

> <SMILES>
[C@@H]1([C@@H]([C@H]([C@@H]([C@H](O1)CO)O[C@H]2[C@@H]([C@H]([C@@H]([C@H](O2)CO)O)O)O)O)O)O[C@H]3[C@@H]([C@H]([C@H](O[C@@H]3CO)O[C@@H]4[C@@H]([C@H]([C@H](O[C@@H]4CO)OCCN)O)O)O)O

> <INCHI>
InChI=1S/C26H47NO21/c27-1-2-41-23-17(38)13(34)20(8(4-29)43-23)47-25-19(40)15(36)22(10(6-31)45-25)48-26-18(39)14(35)21(9(5-30)44-26)46-24-16(37)12(33)11(32)7(3-28)42-24/h7-26,28-40H,1-6,27H2/t7-,8-,9-,10-,11-,12+,13-,14-,15-,16-,17-,18-,19-,20+,21-,22-,23+,24+,25-,26+/m1/s1

> <INCHIKEY>
VWWLVYYAONNRIC-OLYGLWNMSA-N

> <REAXYS_REGISTRY_NUMBER>
29433968

> <PUBMED_CITATION>
28275152

$$$$

Ketcher 05171710472D 1   1.00000     0.00000     0

 42 44  0     1  0            999 V2000
   17.4704   -4.7860    0.0000 O   0  0  0  0  0  0  0  0  0  0  0  0
   16.6047   -5.2860    0.0000 C   0  0  0  0  0  0  0  0  0  0  0  0
   16.6047   -6.2860    0.0000 C   0  0  0  0  0  0  0  0  0  0  0  0
   15.7385   -4.7860    0.0000 O   0  0  0  0  0  0  0  0  0  0  0  0
   15.7385   -6.7860    0.0000 C   0  0  0  0  0  0  0  0  0  0  0  0
   14.8725   -5.2860    0.0000 C   0  0  0  0  0  0  0  0  0  0  0  0
   14.8725   -6.2860    0.0000 C   0  0  0  0  0  0  0  0  0  0  0  0
   17.4704   -6.7860    0.0000 N   0  0  0  0  0  0  0  0  0  0  0  0
   15.7384   -7.7860    0.0000 O   0  0  0  0  0  0  0  0  0  0  0  0
   14.0065   -6.7860    0.0000 O   0  0  0  0  0  0  0  0  0  0  0  0
   14.0065   -4.7860    0.0000 C   0  0  0  0  0  0  0  0  0  0  0  0
   13.1403   -5.2860    0.0000 O   0  0  0  0  0  0  0  0  0  0  0  0
   17.4704   -7.7860    0.0000 C   0  0  0  0  0  0  0  0  0  0  0  0
   18.3366   -8.2861    0.0000 O   0  0  0  0  0  0  0  0  0  0  0  0
   16.6047   -8.2861    0.0000 C   0  0  0  0  0  0  0  0  0  0  0  0
   13.1404   -7.2860    0.0000 C   0  0  0  0  0  0  0  0  0  0  0  0
   13.1404   -8.2861    0.0000 C   0  0  0  0  0  0  0  0  0  0  0  0
   12.2744   -6.7860    0.0000 O   0  0  0  0  0  0  0  0  0  0  0  0
   12.2744   -8.7863    0.0000 C   0  0  0  0  0  0  0  0  0  0  0  0
   11.4084   -7.2860    0.0000 C   0  0  0  0  0  0  0  0  0  0  0  0
   11.4084   -8.2861    0.0000 C   0  0  0  0  0  0  0  0  0  0  0  0
   14.0065   -8.7863    0.0000 O   0  0  0  0  0  0  0  0  0  0  0  0
   12.2744   -9.7863    0.0000 O   0  0  0  0  0  0  0  0  0  0  0  0
   10.5422   -8.7863    0.0000 O   0  0  0  0  0  0  0  0  0  0  0  0
   10.5422   -6.7860    0.0000 C   0  0  0  0  0  0  0  0  0  0  0  0
    9.6765   -7.2860    0.0000 O   0  0  0  0  0  0  0  0  0  0  0  0
   11.4081  -10.2861    0.0000 C   0  0  0  0  0  0  0  0  0  0  0  0
   11.4081  -11.2861    0.0000 C   0  0  0  0  0  0  0  0  0  0  0  0
   10.5422   -9.7863    0.0000 O   0  0  0  0  0  0  0  0  0  0  0  0
   10.5422  -11.7861    0.0000 C   0  0  0  0  0  0  0  0  0  0  0  0
    9.6762  -10.2861    0.0000 C   0  0  0  0  0  0  0  0  0  0  0  0
    9.6762  -11.2861    0.0000 C   0  0  0  0  0  0  0  0  0  0  0  0
   12.2744  -11.7861    0.0000 O   0  0  0  0  0  0  0  0  0  0  0  0
   10.5422  -12.7861    0.0000 O   0  0  0  0  0  0  0  0  0  0  0  0
    8.8102  -11.7861    0.0000 O   0  0  0  0  0  0  0  0  0  0  0  0
    8.8102   -9.7863    0.0000 C   0  0  0  0  0  0  0  0  0  0  0  0
    7.9441  -10.2861    0.0000 O   0  0  0  0  0  0  0  0  0  0  0  0
    8.8102   -8.7863    0.0000 O   0  0  0  0  0  0  0  0  0  0  0  0
    9.6762  -13.2861    0.0000 S   0  0  0  0  0  0  0  0  0  0  0  0
   10.1762  -14.1522    0.0000 O   0  0  0  0  0  0  0  0  0  0  0  0
    9.1762  -12.4202    0.0000 O   0  0  0  0  0  0  0  0  0  0  0  0
    8.8102  -13.7861    0.0000 O   0  0  0  0  0  0  0  0  0  0  0  0
  2  3  1  0     0  0
  2  4  1  0     0  0
  3  5  1  0     0  0
  4  6  1  0     0  0
  5  7  1  0     0  0
  6  7  1  0     0  0
  2  1  1  0     0  0
  3  8  1  6     0  0
  5  9  1  1     0  0
  7 10  1  6     0  0
  6 11  1  1     0  0
 12 11  1  0     0  0
 14 13  2  0     0  0
 15 13  1  0     0  0
  8 13  1  0     0  0
 16 17  1  0     0  0
 16 18  1  0     0  0
 17 19  1  0     0  0
 18 20  1  0     0  0
 19 21  1  0     0  0
 20 21  1  0     0  0
 16 10  1  1     0  0
 17 22  1  6     0  0
 19 23  1  1     0  0
 21 24  1  1     0  0
 20 25  1  1     0  0
 26 25  1  0     0  0
 27 28  1  0     0  0
 27 29  1  0     0  0
 28 30  1  0     0  0
 29 31  1  0     0  0
 30 32  1  0     0  0
 31 32  1  0     0  0
 27 23  1  1     0  0
 28 33  1  6     0  0
 30 34  1  1     0  0
 32 35  1  6     0  0
 31 36  1  1     0  0
 37 36  1  0     0  0
 36 38  2  0     0  0
 40 39  2  0     0  0
 41 39  2  0     0  0
 42 39  1  0     0  0
 34 39  1  0     0  0
M  CHG  2  37  -1  42  -1
M  END
> <ID>
CHEBI:137065

> <NAME>
beta-D-GlcA3S-(1->3)-beta-D-Gal-(1->4)-D-GlcNAc(2-)

> <DEFINITION>
The carbohydrate acid derivative anion formed from β-D-GlcA3S-(1→3)-β-D-Gal-(1→4)-D-GlcNAc by loss of two protons, one from each of its sulfo and carboxy groups.

> <STAR>
3

> <SYNONYM>
human natural killer cell-1 epitope; HNK-1 dianion; beta-D-GlcpA3S-(1->3)-beta-D-Galp-(1->4)-D-GlcpNAc(2-); 3-O-sulfonato-beta-D-glucosyluronate-(1->3)-beta-D-galactosyl-(1->4)-N-acetyl-D-glucosamine; 3-O-sulfonato-beta-D-glucopyranuronosyl-(1->3)-beta-D-galactopyranosyl-(1->4)-2-acetamido-2-deoxy-D-glucopyranose

> <IUPAC_NAME>
3-O-sulfonato-beta-D-glucopyranosyluronate-(1->3)-beta-D-galactopyranosyl-(1->4)-2-acetamido-2-deoxy-D-glucopyranose

> <FORMULA>
C20H31NO20S

> <MASS>
637.522

> <MONOISOTOPIC_MASS>
637.11711

> <CHARGE>
-2

> <SMILES>
OC1[C@@H]([C@H]([C@@H]([C@H](O1)CO)O[C@H]2[C@@H]([C@H]([C@H]([C@H](O2)CO)O)O[C@H]3[C@@H]([C@H]([C@@H]([C@H](O3)C([O-])=O)O)OS(=O)(=O)[O-])O)O)O)NC(=O)C

> <INCHI>
InChI=1S/C20H33NO20S/c1-4(24)21-7-9(26)13(6(3-23)36-18(7)32)38-19-11(28)14(8(25)5(2-22)37-19)39-20-12(29)15(41-42(33,34)35)10(27)16(40-20)17(30)31/h5-16,18-20,22-23,25-29,32H,2-3H2,1H3,(H,21,24)(H,30,31)(H,33,34,35)/p-2/t5-,6-,7-,8+,9-,10+,11-,12-,13-,14+,15+,16+,18?,19+,20-/m1/s1

> <INCHIKEY>
AKXIYZBZYOTHPH-SKSRJFFGSA-L

> <PUBMED_CITATION>
28403522

$$$$

Ketcher 05181714162D 1   1.00000     0.00000     0

 32 34  0     1  0            999 V2000
   15.5614  -23.1972    0.0000 O   0  0  0  0  0  0  0  0  0  0  0  0
   14.6954  -23.6972    0.0000 C   0  0  0  0  0  0  0  0  0  0  0  0
   14.6954  -24.6972    0.0000 C   0  0  0  0  0  0  0  0  0  0  0  0
   13.8293  -23.1972    0.0000 O   0  0  0  0  0  0  0  0  0  0  0  0
   13.8293  -25.1975    0.0000 C   0  0  0  0  0  0  0  0  0  0  0  0
   12.9634  -23.6972    0.0000 C   0  0  0  0  0  0  0  0  0  0  0  0
   12.9634  -24.6972    0.0000 C   0  0  0  0  0  0  0  0  0  0  0  0
   15.5614  -25.1975    0.0000 O   0  0  0  0  0  0  0  0  0  0  0  0
   13.8293  -26.1975    0.0000 O   0  0  0  0  0  0  0  0  0  0  0  0
   12.0972  -25.1975    0.0000 O   0  0  0  0  0  0  0  0  0  0  0  0
   12.0972  -23.1972    0.0000 C   0  0  0  0  0  0  0  0  0  0  0  0
   11.2315  -23.6972    0.0000 O   0  0  0  0  0  0  0  0  0  0  0  0
   12.9631  -26.6972    0.0000 C   0  0  0  0  0  0  0  0  0  0  0  0
   12.9631  -27.6972    0.0000 C   0  0  0  0  0  0  0  0  0  0  0  0
   12.0972  -26.1975    0.0000 O   0  0  0  0  0  0  0  0  0  0  0  0
   12.0972  -28.1972    0.0000 C   0  0  0  0  0  0  0  0  0  0  0  0
   11.2313  -26.6972    0.0000 C   0  0  0  0  0  0  0  0  0  0  0  0
   11.2313  -27.6972    0.0000 C   0  0  0  0  0  0  0  0  0  0  0  0
   13.8293  -28.1972    0.0000 O   0  0  0  0  0  0  0  0  0  0  0  0
   12.0972  -29.1972    0.0000 O   0  0  0  0  0  0  0  0  0  0  0  0
   10.3652  -28.1972    0.0000 O   0  0  0  0  0  0  0  0  0  0  0  0
   10.3652  -26.1975    0.0000 C   0  0  0  0  0  0  0  0  0  0  0  0
    9.4992  -26.6972    0.0000 O   0  0  0  0  0  0  0  0  0  0  0  0
   10.3652  -25.1975    0.0000 O   0  0  0  0  0  0  0  0  0  0  0  0
   16.4274  -23.6972    0.0000 C   0  0  0  0  0  0  0  0  0  0  0  0
   17.2935  -23.1972    0.0000 C   0  0  0  0  0  0  0  0  0  0  0  0
   16.4274  -24.6973    0.0000 C   0  0  0  0  0  0  0  0  0  0  0  0
   18.1595  -23.6974    0.0000 C   0  0  0  0  0  0  0  0  0  0  0  0
   17.2935  -25.1973    0.0000 C   0  0  0  0  0  0  0  0  0  0  0  0
   18.1595  -24.6973    0.0000 C   0  0  0  0  0  0  0  0  0  0  0  0
   19.0256  -25.1974    0.0000 O   0  0  0  0  0  0  0  0  0  0  0  0
   19.8916  -24.6974    0.0000 C   0  0  0  0  0  0  0  0  0  0  0  0
  2  3  1  0     0  0
  2  4  1  0     0  0
  3  5  1  0     0  0
  4  6  1  0     0  0
  5  7  1  0     0  0
  6  7  1  0     0  0
  2  1  1  1     0  0
  3  8  1  6     0  0
  5  9  1  1     0  0
  7 10  1  1     0  0
  6 11  1  1     0  0
 12 11  1  0     0  0
 13 14  1  0     0  0
 13 15  1  0     0  0
 14 16  1  0     0  0
 15 17  1  0     0  0
 16 18  1  0     0  0
 17 18  1  0     0  0
 13  9  1  1     0  0
 14 19  1  6     0  0
 16 20  1  1     0  0
 18 21  1  6     0  0
 17 22  1  1     0  0
 23 22  1  0     0  0
 22 24  2  0     0  0
 26 25  1  0     0  0
 27 25  2  0     0  0
 28 26  2  0     0  0
 29 27  1  0     0  0
 30 28  1  0     0  0
 30 29  2  0     0  0
  1 25  1  0     0  0
 32 31  1  0     0  0
 30 31  1  0     0  0
M  END
> <ID>
CHEBI:137071

> <NAME>
beta-D-GlcA-(1->3)-beta-D-Gal-OC6H4-4-OMe

> <DEFINITION>
A β-D-galactoside that is the 4-methoxyphenyl glycoside of a disaccharide consisting of a β-D-glucuronic acid residue linked (1→3) to β-D-galactose.

> <STAR>
3

> <SYNONYM>
4-methoxyphenyl beta-D-glucuronosyl-(1->3)-beta-D-galactoside; 4-methoxyphenyl beta-D-glucopyranuronosyl-(1->3)-beta-D-galactopyranoside; 4-methoxyphenyl 3-O-(beta-D-glucopyranuronosyl)-beta-D-galactopyranoside

> <IUPAC_NAME>
4-methoxyphenyl (beta-D-glucopyranosyluronic acid)-(1->3)-beta-D-galactopyranoside

> <FORMULA>
C19H26O13

> <MASS>
462.403

> <MONOISOTOPIC_MASS>
462.13734

> <CHARGE>
0

> <SMILES>
O([C@H]1[C@@H]([C@H]([C@H]([C@H](O1)CO)O)O[C@H]2[C@@H]([C@H]([C@@H]([C@H](O2)C(O)=O)O)O)O)O)C=3C=CC(=CC3)OC

> <INCHI>
InChI=1S/C19H26O13/c1-28-7-2-4-8(5-3-7)29-19-14(25)15(10(21)9(6-20)30-19)31-18-13(24)11(22)12(23)16(32-18)17(26)27/h2-5,9-16,18-25H,6H2,1H3,(H,26,27)/t9-,10+,11+,12+,13-,14-,15+,16+,18-,19-/m1/s1

> <INCHIKEY>
SXCMBFCOFCOUHD-UHBSQBIVSA-N

> <PUBMED_CITATION>
28416698

$$$$

Ketcher 05191713502D 1   1.00000     0.00000     0

 29 30  0     1  0            999 V2000
   24.2003  -31.2337    0.0000 O   0  0  0  0  0  0  0  0  0  0  0  0
   23.3343  -31.7338    0.0000 C   0  0  0  0  0  0  0  0  0  0  0  0
   23.3343  -32.7338    0.0000 C   0  0  0  0  0  0  0  0  0  0  0  0
   22.4682  -31.2337    0.0000 O   0  0  0  0  0  0  0  0  0  0  0  0
   22.4682  -33.2341    0.0000 C   0  0  0  0  0  0  0  0  0  0  0  0
   21.6023  -31.7338    0.0000 C   0  0  0  0  0  0  0  0  0  0  0  0
   21.6023  -32.7338    0.0000 C   0  0  0  0  0  0  0  0  0  0  0  0
   24.2003  -33.2341    0.0000 O   0  0  0  0  0  0  0  0  0  0  0  0
   22.4682  -34.2341    0.0000 O   0  0  0  0  0  0  0  0  0  0  0  0
   20.7361  -33.2341    0.0000 O   0  0  0  0  0  0  0  0  0  0  0  0
   20.7361  -31.2337    0.0000 C   0  0  0  0  0  0  0  0  0  0  0  0
   19.8704  -31.7338    0.0000 O   0  0  0  0  0  0  0  0  0  0  0  0
   21.6020  -34.7338    0.0000 C   0  0  0  0  0  0  0  0  0  0  0  0
   21.6020  -35.7338    0.0000 C   0  0  0  0  0  0  0  0  0  0  0  0
   20.7361  -34.2341    0.0000 O   0  0  0  0  0  0  0  0  0  0  0  0
   20.7361  -36.2338    0.0000 C   0  0  0  0  0  0  0  0  0  0  0  0
   19.8701  -34.7338    0.0000 C   0  0  0  0  0  0  0  0  0  0  0  0
   19.8701  -35.7338    0.0000 C   0  0  0  0  0  0  0  0  0  0  0  0
   22.4682  -36.2338    0.0000 O   0  0  0  0  0  0  0  0  0  0  0  0
   20.7361  -37.2338    0.0000 O   0  0  0  0  0  0  0  0  0  0  0  0
   19.0040  -36.2338    0.0000 O   0  0  0  0  0  0  0  0  0  0  0  0
   19.0040  -34.2341    0.0000 C   0  0  0  0  0  0  0  0  0  0  0  0
   18.1380  -34.7338    0.0000 O   0  0  0  0  0  0  0  0  0  0  0  0
   19.0040  -33.2341    0.0000 O   0  0  0  0  0  0  0  0  0  0  0  0
   19.8701  -37.7338    0.0000 S   0  0  0  0  0  0  0  0  0  0  0  0
   20.3701  -38.5999    0.0000 O   0  0  0  0  0  0  0  0  0  0  0  0
   19.3701  -36.8680    0.0000 O   0  0  0  0  0  0  0  0  0  0  0  0
   19.0040  -38.2338    0.0000 O   0  0  0  0  0  0  0  0  0  0  0  0
   25.0663  -31.7338    0.0000 C   0  0  0  0  0  0  0  0  0  0  0  0
  2  3  1  0     0  0
  2  4  1  0     0  0
  3  5  1  0     0  0
  4  6  1  0     0  0
  5  7  1  0     0  0
  6  7  1  0     0  0
  2  1  1  1     0  0
  3  8  1  6     0  0
  5  9  1  1     0  0
  7 10  1  1     0  0
  6 11  1  1     0  0
 12 11  1  0     0  0
 13 14  1  0     0  0
 13 15  1  0     0  0
 14 16  1  0     0  0
 15 17  1  0     0  0
 16 18  1  0     0  0
 17 18  1  0     0  0
 13  9  1  1     0  0
 14 19  1  6     0  0
 16 20  1  1     0  0
 18 21  1  6     0  0
 17 22  1  1     0  0
 23 22  1  0     0  0
 22 24  2  0     0  0
 26 25  2  0     0  0
 27 25  2  0     0  0
 28 25  1  0     0  0
 20 25  1  0     0  0
  1 29  1  0     0  0
M  END
> <ID>
CHEBI:137087

> <NAME>
beta-D-GlcA3S-(1->3)-beta-D-Gal-OMe

> <DEFINITION>
A β-D-galactoside that is the methyl glycoside of a disaccharide consisting of a 3-O-sulfo-β-D-glucuronic acid residue linked (1→3) to β-D-galactose.

> <STAR>
3

> <SYNONYM>
methyl 3-O-sulfo-beta-D-glucuronosyl-(1->3)-beta-D-galactoside; methyl 3-O-sulfo-beta-D-glucopyranuronosyl-(1->3)-beta-D-galactopyranoside; methyl 3-O-(3-O-sulfo-beta-D-glucopyranuronosyl)-beta-D-galactopyranoside

> <IUPAC_NAME>
methyl (3-O-sulfo-beta-D-glucopyranosyluronic acid)-(1->3)-beta-D-galactopyranoside

> <FORMULA>
C13H22O15S

> <MASS>
450.371

> <MONOISOTOPIC_MASS>
450.06794

> <CHARGE>
0

> <SMILES>
O([C@H]1[C@@H]([C@H]([C@H]([C@H](O1)CO)O)O[C@H]2[C@@H]([C@H]([C@@H]([C@H](O2)C(O)=O)O)OS(=O)(=O)O)O)O)C

> <INCHI>
InChI=1S/C13H22O15S/c1-24-12-6(17)8(4(15)3(2-14)25-12)26-13-7(18)9(28-29(21,22)23)5(16)10(27-13)11(19)20/h3-10,12-18H,2H2,1H3,(H,19,20)(H,21,22,23)/t3-,4+,5+,6-,7-,8+,9+,10+,12-,13-/m1/s1

> <INCHIKEY>
HYJDXCFUJGDGSV-NGVJXJJJSA-N

> <PUBMED_CITATION>
28416698

$$$$

Ketcher 08141716082D 1   1.00000     0.00000     0

 39 41  0     1  0            999 V2000
   12.3932  -12.0481    0.0000 C   0  0  0  0  0  0  0  0  0  0  0  0
   12.3932  -13.0481    0.0000 C   0  0  0  0  0  0  0  0  0  0  0  0
   11.5272  -11.5481    0.0000 O   0  0  0  0  0  0  0  0  0  0  0  0
   11.5272  -13.5481    0.0000 C   0  0  0  0  0  0  0  0  0  0  0  0
   10.6611  -12.0481    0.0000 C   0  0  0  0  0  0  0  0  0  0  0  0
   10.6611  -13.0481    0.0000 C   0  0  0  0  0  0  0  0  0  0  0  0
   13.2593  -11.5481    0.0000 O   0  0  0  0  0  0  0  0  0  0  0  0
   13.2593  -13.5481    0.0000 O   0  0  0  0  0  0  0  0  0  0  0  0
   11.5272  -14.5481    0.0000 O   0  0  0  0  0  0  0  0  0  0  0  0
    9.7951  -13.5481    0.0000 O   0  0  0  0  0  0  0  0  0  0  0  0
    9.7951  -11.5481    0.0000 C   0  0  0  0  0  0  0  0  0  0  0  0
    8.9291  -12.0481    0.0000 O   0  0  0  0  0  0  0  0  0  0  0  0
   14.1253   -9.0481    0.0000 C   0  0  0  0  0  0  0  0  0  0  0  0
   14.1253  -10.0481    0.0000 C   0  0  0  0  0  0  0  0  0  0  0  0
   13.2593   -8.5481    0.0000 O   0  0  0  0  0  0  0  0  0  0  0  0
   13.2593  -10.5481    0.0000 C   0  0  0  0  0  0  0  0  0  0  0  0
   12.3932   -9.0481    0.0000 C   0  0  0  0  0  0  0  0  0  0  0  0
   12.3932  -10.0481    0.0000 C   0  0  0  0  0  0  0  0  0  0  0  0
   14.9913   -8.5481    0.0000 O   0  0  0  0  0  0  0  0  0  0  0  0
   14.9913  -10.5481    0.0000 O   0  0  0  0  0  0  0  0  0  0  0  0
   11.5272  -10.5481    0.0000 O   0  0  0  0  0  0  0  0  0  0  0  0
   11.5272   -8.5481    0.0000 C   0  0  0  0  0  0  0  0  0  0  0  0
   15.8574   -6.0482    0.0000 C   0  0  0  0  0  0  0  0  0  0  0  0
   15.8574   -7.0482    0.0000 C   0  0  0  0  0  0  0  0  0  0  0  0
   14.9913   -5.5482    0.0000 O   0  0  0  0  0  0  0  0  0  0  0  0
   14.9913   -7.5482    0.0000 C   0  0  0  0  0  0  0  0  0  0  0  0
   14.1254   -6.0482    0.0000 C   0  0  0  0  0  0  0  0  0  0  0  0
   14.1254   -7.0482    0.0000 C   0  0  0  0  0  0  0  0  0  0  0  0
   16.7234   -5.5482    0.0000 O   0  0  0  0  0  0  0  0  0  0  0  0
   16.7234   -7.5482    0.0000 O   0  0  0  0  0  0  0  0  0  0  0  0
   13.2593   -7.5482    0.0000 O   0  0  0  0  0  0  0  0  0  0  0  0
   13.2593   -5.5482    0.0000 C   0  0  0  0  0  0  0  0  0  0  0  0
   12.3933   -6.0482    0.0000 O   0  0  0  0  0  0  0  0  0  0  0  0
   17.5895   -6.0482    0.0000 C   0  0  0  0  0  0  0  0  0  0  0  0
   18.4555   -5.5481    0.0000 C   0  0  0  0  0  0  0  0  0  0  0  0
   18.4555   -4.5481    0.0000 C   0  0  0  0  0  0  0  0  0  0  0  0
   17.5895   -4.0481    0.0000 C   0  0  0  0  0  0  0  0  0  0  0  0
   17.5895   -3.0481    0.0000 C   0  0  0  0  0  0  0  0  0  0  0  0
   18.4555   -2.5481    0.0000 N   0  0  0  0  0  0  0  0  0  0  0  0
  1  2  1  0     0  0
  1  3  1  0     0  0
  2  4  1  0     0  0
  3  5  1  0     0  0
  4  6  1  0     0  0
  5  6  1  0     0  0
  1  7  1  1     0  0
  2  8  1  6     0  0
  4  9  1  1     0  0
  6 10  1  6     0  0
  5 11  1  1     0  0
 12 11  1  0     0  0
 13 14  1  0     0  0
 13 15  1  0     0  0
 14 16  1  0     0  0
 15 17  1  0     0  0
 16 18  1  0     0  0
 17 18  1  0     0  0
 13 19  1  1     0  0
 14 20  1  6     0  0
 16  7  1  6     0  0
 18 21  1  6     0  0
 17 22  1  6     0  0
 23 24  1  0     0  0
 23 25  1  0     0  0
 24 26  1  0     0  0
 25 27  1  0     0  0
 26 28  1  0     0  0
 27 28  1  0     0  0
 23 29  1  1     0  0
 24 30  1  6     0  0
 26 19  1  1     0  0
 28 31  1  6     0  0
 27 32  1  1     0  0
 33 32  1  0     0  0
 29 34  1  0     0  0
 34 35  1  0     0  0
 35 36  1  0     0  0
 36 37  1  0     0  0
 37 38  1  0     0  0
 38 39  1  0     0  0
M  END
> <ID>
CHEBI:138172

> <NAME>
beta-D-Glcp-(1->3)-6-deoxy-alpha-L-Talp-(1->3)-beta-D-GlcpO[CH2]5NH2

> <DEFINITION>
A trisaccharide derivative consisting of a β-D-glucosyl residue glycosidically linked to a 5-aminopentyl group and which carries at O-3 a β-D-glucosyl-(1→3)-6-deoxy-α-L-talosyl disaccharide unit.

> <STAR>
3

> <SYNONYM>
beta-D-Glc-(1->3)-6-deoxy-alpha-L-Tal-(1->3)-beta-D-GlcO[CH2]5NH2; 5-aminopentyl beta-D-glucosyl-(1->3)-6-deoxy-alpha-L-talosyl-(1->3)-beta-D-glucoside

> <IUPAC_NAME>
5-aminopentyl beta-D-glucopyranosyl-(1->3)-6-deoxy-alpha-L-talopyranosyl-(1->3)-beta-D-glucopyranoside

> <FORMULA>
C23H43NO15

> <MASS>
573.586

> <MONOISOTOPIC_MASS>
573.26327

> <CHARGE>
0

> <SMILES>
[C@@H]1([C@@H]([C@H]([C@@H]([C@H](O1)CO)O)O)O)O[C@H]2[C@H]([C@@H](O[C@H]([C@H]2O)C)O[C@@H]3[C@H]([C@@H](O[C@@H]([C@H]3O)CO)OCCCCCN)O)O

> <INCHI>
InChI=1S/C23H43NO15/c1-9-12(27)19(38-22-16(31)15(30)13(28)10(7-25)37-22)18(33)23(35-9)39-20-14(29)11(8-26)36-21(17(20)32)34-6-4-2-3-5-24/h9-23,25-33H,2-8,24H2,1H3/t9-,10+,11+,12+,13+,14+,15-,16+,17+,18+,19+,20-,21+,22-,23-/m0/s1

> <INCHIKEY>
YJHMGFVNUAQRTA-XPOYFQNYSA-N

> <PUBMED_CITATION>
28740137

$$$$

Ketcher 08141716592D 1   1.00000     0.00000     0

 40 42  0     1  0            999 V2000
   12.3932  -12.0481    0.0000 C   0  0  0  0  0  0  0  0  0  0  0  0
   12.3932  -13.0481    0.0000 C   0  0  0  0  0  0  0  0  0  0  0  0
   11.5272  -11.5481    0.0000 O   0  0  0  0  0  0  0  0  0  0  0  0
   11.5272  -13.5481    0.0000 C   0  0  0  0  0  0  0  0  0  0  0  0
   10.6611  -12.0481    0.0000 C   0  0  0  0  0  0  0  0  0  0  0  0
   10.6611  -13.0481    0.0000 C   0  0  0  0  0  0  0  0  0  0  0  0
   13.2593  -11.5481    0.0000 O   0  0  0  0  0  0  0  0  0  0  0  0
   13.2593  -13.5481    0.0000 O   0  0  0  0  0  0  0  0  0  0  0  0
   11.5272  -14.5481    0.0000 O   0  0  0  0  0  0  0  0  0  0  0  0
    9.7951  -13.5481    0.0000 O   0  0  0  0  0  0  0  0  0  0  0  0
    9.7951  -11.5481    0.0000 C   0  0  0  0  0  0  0  0  0  0  0  0
    8.9291  -12.0481    0.0000 O   0  0  0  0  0  0  0  0  0  0  0  0
   14.1253   -9.0481    0.0000 C   0  0  0  0  0  0  0  0  0  0  0  0
   14.1253  -10.0481    0.0000 C   0  0  0  0  0  0  0  0  0  0  0  0
   13.2593   -8.5482    0.0000 O   0  0  0  0  0  0  0  0  0  0  0  0
   13.2593  -10.5481    0.0000 C   0  0  0  0  0  0  0  0  0  0  0  0
   12.3932   -9.0481    0.0000 C   0  0  0  0  0  0  0  0  0  0  0  0
   12.3932  -10.0481    0.0000 C   0  0  0  0  0  0  0  0  0  0  0  0
   14.9914   -8.5482    0.0000 O   0  0  0  0  0  0  0  0  0  0  0  0
   14.9914  -10.5481    0.0000 O   0  0  0  0  0  0  0  0  0  0  0  0
   11.5272  -10.5481    0.0000 O   0  0  0  0  0  0  0  0  0  0  0  0
   11.5272   -8.5482    0.0000 C   0  0  0  0  0  0  0  0  0  0  0  0
   15.8574   -6.0482    0.0000 C   0  0  0  0  0  0  0  0  0  0  0  0
   15.8574   -7.0482    0.0000 C   0  0  0  0  0  0  0  0  0  0  0  0
   14.9914   -5.5482    0.0000 O   0  0  0  0  0  0  0  0  0  0  0  0
   14.9914   -7.5482    0.0000 C   0  0  0  0  0  0  0  0  0  0  0  0
   14.1254   -6.0482    0.0000 C   0  0  0  0  0  0  0  0  0  0  0  0
   14.1254   -7.0482    0.0000 C   0  0  0  0  0  0  0  0  0  0  0  0
   16.7234   -5.5482    0.0000 O   0  0  0  0  0  0  0  0  0  0  0  0
   16.7234   -7.5482    0.0000 O   0  0  0  0  0  0  0  0  0  0  0  0
   13.2593   -7.5482    0.0000 O   0  0  0  0  0  0  0  0  0  0  0  0
   13.2593   -5.5482    0.0000 C   0  0  0  0  0  0  0  0  0  0  0  0
   12.3933   -6.0482    0.0000 O   0  0  0  0  0  0  0  0  0  0  0  0
   17.5895   -6.0482    0.0000 C   0  0  0  0  0  0  0  0  0  0  0  0
   18.4555   -5.5481    0.0000 C   0  0  0  0  0  0  0  0  0  0  0  0
   18.4555   -4.5481    0.0000 C   0  0  0  0  0  0  0  0  0  0  0  0
   17.5895   -4.0481    0.0000 C   0  0  0  0  0  0  0  0  0  0  0  0
   17.5895   -3.0481    0.0000 C   0  0  0  0  0  0  0  0  0  0  0  0
   18.4555   -2.5481    0.0000 N   0  0  0  0  0  0  0  0  0  0  0  0
   15.8574  -10.0481    0.0000 C   0  0  0  0  0  0  0  0  0  0  0  0
  1  2  1  0     0  0
  1  3  1  0     0  0
  2  4  1  0     0  0
  3  5  1  0     0  0
  4  6  1  0     0  0
  5  6  1  0     0  0
  1  7  1  1     0  0
  2  8  1  6     0  0
  4  9  1  1     0  0
  6 10  1  6     0  0
  5 11  1  1     0  0
 12 11  1  0     0  0
 13 14  1  0     0  0
 13 15  1  0     0  0
 14 16  1  0     0  0
 15 17  1  0     0  0
 16 18  1  0     0  0
 17 18  1  0     0  0
 13 19  1  1     0  0
 14 20  1  6     0  0
 16  7  1  6     0  0
 18 21  1  6     0  0
 17 22  1  6     0  0
 23 24  1  0     0  0
 23 25  1  0     0  0
 24 26  1  0     0  0
 25 27  1  0     0  0
 26 28  1  0     0  0
 27 28  1  0     0  0
 23 29  1  1     0  0
 24 30  1  6     0  0
 26 19  1  1     0  0
 28 31  1  6     0  0
 27 32  1  1     0  0
 33 32  1  0     0  0
 29 34  1  0     0  0
 34 35  1  0     0  0
 35 36  1  0     0  0
 36 37  1  0     0  0
 37 38  1  0     0  0
 38 39  1  0     0  0
 20 40  1  0     0  0
M  END
> <ID>
CHEBI:138174

> <NAME>
beta-D-Glcp-(1->3)-6-deoxy-alpha-L-Talp2Me-(1->3)-beta-D-GlcpO[CH2]5NH2

> <DEFINITION>
A trisaccharide derivative consisting of a β-D-glucosyl residue glycosidically linked to a 5-aminopentyl group and which carries at O-3 a β-D-glucosyl-(1→3)-6-deoxy-2-O-methyl-α-L-talosyl disaccharide unit.

> <STAR>
3

> <SYNONYM>
beta-D-Glc-(1->3)-6-deoxy-alpha-L-Tal2Me-(1->3)-beta-D-GlcO[CH2]5NH2; 5-aminopentyl beta-D-glucosyl-(1->3)-6-deoxy-2-O-methyl-alpha-L-talosyl-(1->3)-beta-D-glucoside

> <IUPAC_NAME>
5-aminopentyl beta-D-glucopyranosyl-(1->3)-6-deoxy-2-O-methyl-alpha-L-talopyranosyl-(1->3)-beta-D-glucopyranoside

> <FORMULA>
C24H45NO15

> <MASS>
587.613

> <MONOISOTOPIC_MASS>
587.27892

> <CHARGE>
0

> <SMILES>
[C@@H]1([C@@H]([C@H]([C@@H]([C@H](O1)CO)O)O)O)O[C@H]2[C@H]([C@@H](O[C@H]([C@H]2O)C)O[C@@H]3[C@H]([C@@H](O[C@@H]([C@H]3O)CO)OCCCCCN)O)OC

> <INCHI>
InChI=1S/C24H45NO15/c1-10-13(28)20(40-23-17(32)16(31)14(29)11(8-26)38-23)21(34-2)24(36-10)39-19-15(30)12(9-27)37-22(18(19)33)35-7-5-3-4-6-25/h10-24,26-33H,3-9,25H2,1-2H3/t10-,11+,12+,13+,14+,15+,16-,17+,18+,19-,20+,21+,22+,23-,24-/m0/s1

> <INCHIKEY>
LISXQWTXMXUSAT-CJCRPAANSA-N

> <PUBMED_CITATION>
28740137

$$$$

Ketcher 08151716172D 1   1.00000     0.00000     0

 31 32  0     1  0            999 V2000
   12.8619  -31.6909    0.0000 O   0  0  0  0  0  0  0  0  0  0  0  0
   13.7318  -29.1796    0.0000 C   0  0  0  0  0  0  0  0  0  0  0  0
   13.7318  -30.1841    0.0000 C   0  0  0  0  0  0  0  0  0  0  0  0
   12.8619  -28.6774    0.0000 O   0  0  0  0  0  0  0  0  0  0  0  0
   12.8619  -30.6863    0.0000 C   0  0  0  0  0  0  0  0  0  0  0  0
   11.9919  -29.1796    0.0000 C   0  0  0  0  0  0  0  0  0  0  0  0
   11.9919  -30.1841    0.0000 C   0  0  0  0  0  0  0  0  0  0  0  0
   14.6018  -28.6774    0.0000 O   0  0  0  0  0  0  0  0  0  0  0  0
   14.6018  -30.6863    0.0000 O   0  0  0  0  0  0  0  0  0  0  0  0
   11.1220  -30.6863    0.0000 O   0  0  0  0  0  0  0  0  0  0  0  0
   11.1220  -28.6774    0.0000 C   0  0  0  0  0  0  0  0  0  0  0  0
   15.4717  -26.1661    0.0000 C   0  0  0  0  0  0  0  0  0  0  0  0
   15.4717  -27.1707    0.0000 C   0  0  0  0  0  0  0  0  0  0  0  0
   14.6018  -25.6638    0.0000 O   0  0  0  0  0  0  0  0  0  0  0  0
   14.6018  -27.6729    0.0000 C   0  0  0  0  0  0  0  0  0  0  0  0
   13.7319  -26.1661    0.0000 C   0  0  0  0  0  0  0  0  0  0  0  0
   13.7319  -27.1707    0.0000 C   0  0  0  0  0  0  0  0  0  0  0  0
   16.3416  -25.6638    0.0000 O   0  0  0  0  0  0  0  0  0  0  0  0
   16.3416  -27.6729    0.0000 O   0  0  0  0  0  0  0  0  0  0  0  0
   12.8619  -27.6729    0.0000 O   0  0  0  0  0  0  0  0  0  0  0  0
   12.8619  -25.6638    0.0000 C   0  0  0  0  0  0  0  0  0  0  0  0
   11.9920  -26.1661    0.0000 O   0  0  0  0  0  0  0  0  0  0  0  0
   17.2116  -26.1661    0.0000 C   0  0  0  0  0  0  0  0  0  0  0  0
   18.0815  -25.6638    0.0000 C   0  0  0  0  0  0  0  0  0  0  0  0
   18.0815  -24.6591    0.0000 C   0  0  0  0  0  0  0  0  0  0  0  0
   17.2116  -24.1568    0.0000 C   0  0  0  0  0  0  0  0  0  0  0  0
   17.2116  -23.1523    0.0000 C   0  0  0  0  0  0  0  0  0  0  0  0
   18.0815  -22.6501    0.0000 N   0  0  0  0  0  0  0  0  0  0  0  0
   15.4717  -30.1841    0.0000 C   0  0  0  0  0  0  0  0  0  0  0  0
   16.3416  -30.6863    0.0000 C   0  0  0  0  0  0  0  0  0  0  0  0
   15.4717  -29.1796    0.0000 O   0  0  0  0  0  0  0  0  0  0  0  0
  2  3  1  0     0  0
  2  4  1  0     0  0
  3  5  1  0     0  0
  4  6  1  0     0  0
  5  7  1  0     0  0
  6  7  1  0     0  0
  2  8  1  1     0  0
  3  9  1  6     0  0
  5  1  1  6     0  0
  7 10  1  6     0  0
  6 11  1  6     0  0
 12 13  1  0     0  0
 12 14  1  0     0  0
 13 15  1  0     0  0
 14 16  1  0     0  0
 15 17  1  0     0  0
 16 17  1  0     0  0
 12 18  1  1     0  0
 13 19  1  6     0  0
 15  8  1  1     0  0
 17 20  1  6     0  0
 16 21  1  1     0  0
 22 21  1  0     0  0
 18 23  1  0     0  0
 23 24  1  0     0  0
 24 25  1  0     0  0
 25 26  1  0     0  0
 26 27  1  0     0  0
 27 28  1  0     0  0
  9 29  1  0     0  0
 29 30  1  0     0  0
 29 31  2  0     0  0
M  END
> <ID>
CHEBI:138185

> <NAME>
6-deoxy-alpha-L-Talp2Ac-(1->3)-beta-D-GlcpO[CH2]5NH2

> <DEFINITION>
A disaccharide derivative consisting of a β-D-glucosyl residue glycosidically linked to a 5-aminopentyl group and which carries at O-3 a 2-O-acetyl-6-deoxy-α-L-talosyl residue.

> <STAR>
3

> <SYNONYM>
6-deoxy-alpha-L-Tal2Ac-(1->3)-beta-D-GlcO[CH2]5NH2; 5-aminopentyl 3-O-(2-O-acetyl-6-deoxy-alpha-L-talopyranosyl)-beta-D-glucopyranoside; 2-O-acetyl-6-deoxy-alpha-L-talosyl-(1->3)-beta-D-glucoside

> <IUPAC_NAME>
2-O-acetyl-6-deoxy-alpha-L-talopyranosyl-(1->3)-beta-D-glucopyranoside

> <FORMULA>
C19H35NO11

> <MASS>
453.482

> <MONOISOTOPIC_MASS>
453.22101

> <CHARGE>
0

> <SMILES>
O[C@H]1[C@H]([C@@H](O[C@H]([C@H]1O)C)O[C@@H]2[C@H]([C@@H](O[C@@H]([C@H]2O)CO)OCCCCCN)O)OC(C)=O

> <INCHI>
InChI=1S/C19H35NO11/c1-9-12(23)14(25)17(29-10(2)22)19(28-9)31-16-13(24)11(8-21)30-18(15(16)26)27-7-5-3-4-6-20/h9,11-19,21,23-26H,3-8,20H2,1-2H3/t9-,11+,12+,13+,14+,15+,16-,17+,18+,19-/m0/s1

> <INCHIKEY>
CCPLMIHCZUHWSZ-MVRGVPSJSA-N

> <PUBMED_CITATION>
28740137

$$$$

Ketcher 11061712182D 1   1.00000     0.00000     0

 17 18  0     1  0            999 V2000
    8.1037  -24.8825    0.0000 C   0  0  0  0  0  0  0  0  0  0  0  0
    7.9992  -25.8770    0.0000 C   0  0  0  0  0  0  0  0  0  0  0  0
    7.0210  -26.0849    0.0000 N   0  0  0  0  0  0  0  0  0  0  0  0
    6.5210  -25.2189    0.0000 C   0  0  0  0  0  0  0  0  0  0  0  0
    7.1901  -24.4758    0.0000 C   0  0  0  0  0  0  0  0  0  0  0  0
    6.8811  -23.5248    0.0000 C   0  0  0  0  0  0  0  0  0  0  0  0
    5.5429  -25.0110    0.0000 C   0  0  0  0  0  0  0  0  0  0  0  0
    5.2338  -24.0599    0.0000 C   0  0  0  0  0  0  0  0  0  0  0  0
    5.9029  -23.3168    0.0000 C   0  0  0  0  0  0  0  0  0  0  0  0
   10.7017  -23.3824    0.0000 O   0  0  0  0  0  0  0  0  0  0  0  0
   10.7017  -24.3825    0.0000 C   0  0  0  0  0  0  0  0  0  0  0  0
   11.5678  -24.8825    0.0000 O   0  0  0  0  0  0  0  0  0  0  0  0
    9.8357  -24.8825    0.0000 C   0  0  0  0  0  0  0  0  0  0  0  0
    9.8357  -25.8824    0.0000 N   0  0  0  0  0  0  0  0  0  0  0  0
    8.9697  -24.3825    0.0000 C   0  0  0  0  0  0  0  0  0  0  0  0
    7.2021  -27.8075    0.0000 O   0  0  0  0  0  0  0  0  0  0  0  0
    6.6142  -26.9985    0.0000 N   0  0  0  0  0  0  0  0  0  0  0  0
  1  2  2  0     0  0
  1  5  1  0     0  0
  2  3  1  0     0  0
  3  4  1  0     0  0
  4  5  2  0     0  0
  4  7  1  0     0  0
  5  6  1  0     0  0
  6  9  2  0     0  0
  7  8  2  0     0  0
  8  9  1  0     0  0
 11 10  2  0     0  0
 12 11  1  0     0  0
 13 11  1  0     0  0
 13 14  1  1     0  0
 15 13  1  0     0  0
  1 15  1  0     0  0
 17 16  2  0     0  0
  3 17  1  0     0  0
M  END
> <ID>
CHEBI:138932

> <NAME>
1-nitroso-L-tryptophan

> <DEFINITION>
An L-tryptophan derivative in which the indolyl ring nitrogen carries a nitroso substituent.

> <STAR>
3

> <SYNONYM>
NO-tryptophan; NO-L-tryptophan

> <IUPAC_NAME>
1-nitroso-L-tryptophan; (2S)-2-amino-3-(1-nitroso-1H-indol-3-yl)propanoic acid

> <FORMULA>
C11H11N3O3

> <MASS>
233.224

> <MONOISOTOPIC_MASS>
233.08004

> <CHARGE>
0

> <SMILES>
C1(=CN(C2=C1C=CC=C2)N=O)C[C@@H](C(=O)O)N

> <INCHI>
InChI=1S/C11H11N3O3/c12-9(11(15)16)5-7-6-14(13-17)10-4-2-1-3-8(7)10/h1-4,6,9H,5,12H2,(H,15,16)/t9-/m0/s1

> <INCHIKEY>
WBQJTPDOGLYTBE-VIFPVBQESA-N

> <CAS_REGISTRY_NUMBER>
68807-89-6

> <CHEMIDPLUS>
68807-89-6

> <PUBMED_CITATION>
28600633

$$$$

Ketcher 11061716572D 1   1.00000     0.00000     0

 14 13  0     1  0            999 V2000
   10.3055  -32.1596    0.0000 C   0  0  0  0  0  0  0  0  0  0  0  0
   15.5016  -32.1596    0.0000 C   0  0  0  0  0  0  0  0  0  0  0  0
    9.4395  -32.6595    0.0000 N   0  0  0  0  0  0  0  0  0  0  0  0
   15.5016  -31.1595    0.0000 O   0  0  0  0  0  0  0  0  0  0  0  0
   11.1716  -32.6595    0.0000 N   0  0  0  0  0  0  0  0  0  0  0  0
   14.6356  -32.6595    0.0000 C   0  0  0  0  0  0  0  0  0  0  0  0
   10.3055  -31.1595    0.0000 N   0  0  0  0  0  0  0  0  0  0  0  0
   14.6356  -33.6596    0.0000 N   0  0  0  0  0  0  0  0  0  0  0  0
   12.0376  -32.1596    0.0000 C   0  0  0  0  0  0  0  0  0  0  0  0
   13.7697  -32.1596    0.0000 C   0  0  0  0  0  0  0  0  0  0  0  0
   12.9036  -32.6595    0.0000 C   0  0  0  0  0  0  0  0  0  0  0  0
   16.3677  -32.6595    0.0000 O   0  0  0  0  0  0  0  0  0  0  0  0
    9.4395  -30.6595    0.0000 N   0  0  0  0  0  0  0  0  0  0  0  0
    9.4395  -29.6595    0.0000 O   0  0  0  0  0  0  0  0  0  0  0  0
  1  3  2  0     0  0
  1  5  1  0     0  0
  1  7  1  0     0  0
  2  6  1  0     0  0
  2  4  2  0     0  0
  5  9  1  0     0  0
  6 10  1  0     0  0
  6  8  1  1     0  0
  9 11  1  0     0  0
 10 11  1  0     0  0
 12  2  1  0     0  0
  7 13  1  0     0  0
 13 14  2  0     0  0
M  END
> <ID>
CHEBI:138933

> <NAME>
N(omega)-nitroso-L-arginine

> <DEFINITION>
An L-arginine derivative in which one of the ω-nitrogen atoms carries a nitroso substituent.

> <STAR>
3

> <SYNONYM>
NO-L-arginine; NO-arginine

> <IUPAC_NAME>
N(5)-(N-nitrosocarbamimidoyl)-L-ornithine; (2S)-2-amino-5-(N'-nitrosocarbamimidamido)pentanoic acid

> <FORMULA>
C6H13N5O3

> <MASS>
203.199

> <MONOISOTOPIC_MASS>
203.10184

> <CHARGE>
0

> <SMILES>
C(=N)(NCCC[C@@H](C(=O)O)N)NN=O

> <INCHI>
InChI=1S/C6H13N5O3/c7-4(5(12)13)2-1-3-9-6(8)10-11-14/h4H,1-3,7H2,(H,12,13)(H3,8,9,10,14)/t4-/m0/s1

> <INCHIKEY>
DFSJTMFCAJNYBY-BYPYZUCNSA-N

> <PUBMED_CITATION>
28600633

$$$$

Ketcher 11061716192D 1   1.00000     0.00000     0

  9  8  0     1  0            999 V2000
   23.2034   -4.7862    0.0000 C   0  0  0  0  0  0  0  0  0  0  0  0
   22.3373   -5.2862    0.0000 C   0  0  0  0  0  0  0  0  0  0  0  0
   23.2034   -3.7862    0.0000 O   0  0  0  0  0  0  0  0  0  0  0  0
   22.3373   -6.2862    0.0000 N   0  0  0  0  0  0  0  0  0  0  0  0
   20.6053   -5.2862    0.0000 S   0  0  0  0  0  0  0  0  0  0  0  0
   21.4712   -4.7862    0.0000 C   0  0  0  0  0  0  0  0  0  0  0  0
   24.0694   -5.2862    0.0000 O   0  0  0  0  0  0  0  0  0  0  0  0
   18.8732   -5.2862    0.0000 O   0  0  0  0  0  0  0  0  0  0  0  0
   19.7392   -4.7862    0.0000 N   0  0  0  0  0  0  0  0  0  0  0  0
  1  2  1  0     0  0
  1  3  2  0     0  0
  2  4  1  1     0  0
  2  6  1  0     0  0
  5  6  1  0     0  0
  7  1  1  0     0  0
  9  8  2  0     0  0
  5  9  1  0     0  0
M  END
> <ID>
CHEBI:138935

> <NAME>
S-nitroso-L-cysteine

> <DEFINITION>
An L-cysteine derivative in which the sulfur atom carries a nitroso substituent.  A cell-permeable low-molecular-weight nitrosothiol and nitric oxide donor.

> <STAR>
3

> <SECONDARY_ID>
CHEBI:45691

> <SYNONYM>
S-Nitrosocysteine; S-nitroso-L-cysteine; NO-L-cysteine; NO-cysteine; Nitrosocysteine; L-CysSNO; CysNO

> <FORMULA>
C3H6N2O3S

> <MASS>
150.158

> <MONOISOTOPIC_MASS>
150.00991

> <CHARGE>
0

> <SMILES>
C([C@@H](N)CSN=O)(=O)O

> <INCHI>
InChI=1S/C3H6N2O3S/c4-2(3(6)7)1-9-5-8/h2H,1,4H2,(H,6,7)/t2-/m0/s1

> <INCHIKEY>
XOWVFANEOZMPKG-REOHCLBHSA-N

> <CAS_REGISTRY_NUMBER>
51209-75-7

> <REAXYS_REGISTRY_NUMBER>
3538115

> <CHEMIDPLUS>
51209-75-7

> <PDBECHEM_ACCESSION>
SNC

> <PUBMED_CITATION>
22304688; 26444682; 26686469; 27064847; 27126574; 28081246; 28381519; 28440386; 28600633; 28764371

$$$$

Ketcher 11081710342D 1   1.00000     0.00000     0

 27 28  0     1  0            999 V2000
   33.3322  -11.2963    0.0000 O   0  0  0  0  0  0  0  0  0  0  0  0
   34.1983   -8.7963    0.0000 C   0  0  0  0  0  0  0  0  0  0  0  0
   34.1983   -9.7963    0.0000 C   0  0  0  0  0  0  0  0  0  0  0  0
   33.3322   -8.2963    0.0000 O   0  0  0  0  0  0  0  0  0  0  0  0
   33.3322  -10.2963    0.0000 C   0  0  0  0  0  0  0  0  0  0  0  0
   32.4662   -8.7963    0.0000 C   0  0  0  0  0  0  0  0  0  0  0  0
   32.4662   -9.7963    0.0000 C   0  0  0  0  0  0  0  0  0  0  0  0
   35.0643   -8.2963    0.0000 O   0  0  0  0  0  0  0  0  0  0  0  0
   35.0643  -10.2963    0.0000 O   0  0  0  0  0  0  0  0  0  0  0  0
   31.6002  -10.2963    0.0000 O   0  0  0  0  0  0  0  0  0  0  0  0
   31.6002   -8.2963    0.0000 C   0  0  0  0  0  0  0  0  0  0  0  0
   35.9304   -5.7964    0.0000 C   0  0  0  0  0  0  0  0  0  0  0  0
   35.9304   -6.7963    0.0000 C   0  0  0  0  0  0  0  0  0  0  0  0
   35.0643   -5.2963    0.0000 O   0  0  0  0  0  0  0  0  0  0  0  0
   35.0643   -7.2963    0.0000 C   0  0  0  0  0  0  0  0  0  0  0  0
   34.1983   -5.7964    0.0000 C   0  0  0  0  0  0  0  0  0  0  0  0
   34.1983   -6.7963    0.0000 C   0  0  0  0  0  0  0  0  0  0  0  0
   36.7964   -5.2963    0.0000 O   0  0  0  0  0  0  0  0  0  0  0  0
   36.7964   -7.2963    0.0000 O   0  0  0  0  0  0  0  0  0  0  0  0
   33.3323   -7.2963    0.0000 O   0  0  0  0  0  0  0  0  0  0  0  0
   33.3323   -5.2963    0.0000 C   0  0  0  0  0  0  0  0  0  0  0  0
   37.6624   -5.7964    0.0000 C   0  0  0  0  0  0  0  0  0  0  0  0
   38.5284   -5.2962    0.0000 C   0  0  0  0  0  0  0  0  0  0  0  0
   39.3944   -5.7962    0.0000 C   0  0  0  0  0  0  0  0  0  0  0  0
   40.2604   -5.2962    0.0000 C   0  0  0  0  0  0  0  0  0  0  0  0
   41.1266   -5.7962    0.0000 C   0  0  0  0  0  0  0  0  0  0  0  0
   41.9926   -5.2962    0.0000 N   0  0  0  0  0  0  0  0  0  0  0  0
  2  3  1  0     0  0
  2  4  1  0     0  0
  3  5  1  0     0  0
  4  6  1  0     0  0
  5  7  1  0     0  0
  6  7  1  0     0  0
  2  8  1  1     0  0
  3  9  1  6     0  0
  5  1  1  6     0  0
  7 10  1  1     0  0
  6 11  1  6     0  0
 12 13  1  0     0  0
 12 14  1  0     0  0
 13 15  1  0     0  0
 14 16  1  0     0  0
 15 17  1  0     0  0
 16 17  1  0     0  0
 12 18  1  1     0  0
 13 19  1  6     0  0
 15  8  1  6     0  0
 17 20  1  1     0  0
 16 21  1  6     0  0
 22 18  1  0     0  0
 23 22  1  0     0  0
 24 23  1  0     0  0
 25 24  1  0     0  0
 26 25  1  0     0  0
 27 26  1  0     0  0
M  END
> <ID>
CHEBI:138947

> <NAME>
alpha-L-Rhap-(1->3)-alpha-L-RhapO[CH2]5NH2

> <DEFINITION>
A disaccharide derivative consisting of two α-L-rhamnosyl residues linked (1→3) and at the reducing end linked glycosidically to a 5-aminopentyl group.

> <STAR>
3

> <SYNONYM>
Rhaalpha1-3RhaalphaO[CH2]5NH2; alpha-L-Rha-(1->3)-alpha-L-RhaO[CH2]5NH2; 5-aminopentyl alpha-L-rhamnosyl-(1->3)-alpha-L-rhamnoside; 5-aminopentyl 6-deoxy-alpha-L-mannopyranosyl-(1->3)-6-deoxy-alpha-L-mannopyranoside; 5-aminopentyl 6-deoxy-3-O-(6-deoxy-alpha-L-mannopyranosyl)-alpha-L-mannopyranoside

> <IUPAC_NAME>
5-aminopentyl alpha-L-rhamnopyranosyl-(1->3)-alpha-L-rhamnopyranoside

> <FORMULA>
C17H33NO9

> <MASS>
395.446

> <MONOISOTOPIC_MASS>
395.21553

> <CHARGE>
0

> <SMILES>
O[C@H]1[C@H]([C@@H](O[C@H]([C@@H]1O)C)O[C@H]2[C@H]([C@@H](O[C@H]([C@@H]2O)C)OCCCCCN)O)O

> <INCHI>
InChI=1S/C17H33NO9/c1-8-10(19)12(21)13(22)17(26-8)27-15-11(20)9(2)25-16(14(15)23)24-7-5-3-4-6-18/h8-17,19-23H,3-7,18H2,1-2H3/t8-,9-,10-,11-,12+,13+,14+,15+,16+,17-/m0/s1

> <INCHIKEY>
DAAWJNPTSNEVJE-ILYPYBDESA-N

> <PUBMED_CITATION>
28945368

$$$$

Ketcher 11081711562D 1   1.00000     0.00000     0

 27 28  0     1  0            999 V2000
   33.3322  -11.2963    0.0000 O   0  0  0  0  0  0  0  0  0  0  0  0
   34.1983   -8.7963    0.0000 C   0  0  0  0  0  0  0  0  0  0  0  0
   34.1983   -9.7963    0.0000 C   0  0  0  0  0  0  0  0  0  0  0  0
   33.3322   -8.2963    0.0000 O   0  0  0  0  0  0  0  0  0  0  0  0
   33.3322  -10.2963    0.0000 C   0  0  0  0  0  0  0  0  0  0  0  0
   32.4662   -8.7963    0.0000 C   0  0  0  0  0  0  0  0  0  0  0  0
   32.4662   -9.7963    0.0000 C   0  0  0  0  0  0  0  0  0  0  0  0
   35.0643   -8.2963    0.0000 O   0  0  0  0  0  0  0  0  0  0  0  0
   35.0643  -10.2963    0.0000 O   0  0  0  0  0  0  0  0  0  0  0  0
   31.6002  -10.2963    0.0000 O   0  0  0  0  0  0  0  0  0  0  0  0
   31.6002   -8.2963    0.0000 C   0  0  0  0  0  0  0  0  0  0  0  0
   35.9304   -5.7964    0.0000 C   0  0  0  0  0  0  0  0  0  0  0  0
   35.9304   -6.7963    0.0000 C   0  0  0  0  0  0  0  0  0  0  0  0
   35.0643   -5.2963    0.0000 O   0  0  0  0  0  0  0  0  0  0  0  0
   35.0643   -7.2963    0.0000 C   0  0  0  0  0  0  0  0  0  0  0  0
   34.1983   -5.7964    0.0000 C   0  0  0  0  0  0  0  0  0  0  0  0
   34.1983   -6.7963    0.0000 C   0  0  0  0  0  0  0  0  0  0  0  0
   36.7964   -5.2963    0.0000 O   0  0  0  0  0  0  0  0  0  0  0  0
   36.7964   -7.2963    0.0000 O   0  0  0  0  0  0  0  0  0  0  0  0
   33.3323   -7.2963    0.0000 O   0  0  0  0  0  0  0  0  0  0  0  0
   33.3323   -5.2963    0.0000 C   0  0  0  0  0  0  0  0  0  0  0  0
   37.6624   -5.7964    0.0000 C   0  0  0  0  0  0  0  0  0  0  0  0
   38.5284   -5.2962    0.0000 C   0  0  0  0  0  0  0  0  0  0  0  0
   39.3944   -5.7962    0.0000 C   0  0  0  0  0  0  0  0  0  0  0  0
   40.2604   -5.2962    0.0000 C   0  0  0  0  0  0  0  0  0  0  0  0
   41.1266   -5.7962    0.0000 C   0  0  0  0  0  0  0  0  0  0  0  0
   41.9926   -5.2962    0.0000 N   0  0  0  0  0  0  0  0  0  0  0  0
  2  3  1  0     0  0
  2  4  1  0     0  0
  3  5  1  0     0  0
  4  6  1  0     0  0
  5  7  1  0     0  0
  6  7  1  0     0  0
  2  8  1  6     0  0
  3  9  1  6     0  0
  5  1  1  6     0  0
  7 10  1  1     0  0
  6 11  1  6     0  0
 12 13  1  0     0  0
 12 14  1  0     0  0
 13 15  1  0     0  0
 14 16  1  0     0  0
 15 17  1  0     0  0
 16 17  1  0     0  0
 12 18  1  1     0  0
 13 19  1  6     0  0
 15  8  1  6     0  0
 17 20  1  1     0  0
 16 21  1  6     0  0
 22 18  1  0     0  0
 23 22  1  0     0  0
 24 23  1  0     0  0
 25 24  1  0     0  0
 26 25  1  0     0  0
 27 26  1  0     0  0
M  END
> <ID>
CHEBI:138949

> <NAME>
beta-L-Rhap-(1->3)-beta-D-GlcpO[CH2]5NH2

> <DEFINITION>
A disaccharide derivative consisting of a β-D-glucosyl residue glycosidically linked to a 5-aminopentyl group and which carries at O-3 a β-L-rhamnosyl residue.

> <STAR>
3

> <SYNONYM>
Rhabeta1-3GlcalphaO[CH2]5NH2; beta-L-Rha-(1->3)-beta-D-GlcO[CH2]5NH2; 5-aminopentyl beta-L-rhamnosyl-(1->3)-beta-D-glucoside; 5-aminopentyl beta-L-rhamnopyranosyl-(1->3)-beta-D-glucopyranoside; 5-aminopentyl 3-O-(beta-L-rhamnosyl)-beta-D-glucoside; 5-aminopentyl 3-O-(beta-L-rhamnopyranosyl)-beta-D-glucopyranoside; 5-aminopentyl 3-O-(6-deoxy-beta-L-mannopyranosyl)-beta-D-glucopyranoside

> <IUPAC_NAME>
5-aminopentyl 6-deoxy-beta-L-mannopyranosyl-(1->3)-beta-D-glucopyranoside

> <FORMULA>
C17H33NO9

> <MASS>
395.446

> <MONOISOTOPIC_MASS>
395.21553

> <CHARGE>
0

> <SMILES>
O[C@H]1[C@H]([C@H](O[C@H]([C@@H]1O)C)O[C@H]2[C@H]([C@@H](O[C@H]([C@@H]2O)C)OCCCCCN)O)O

> <INCHI>
InChI=1S/C17H33NO9/c1-8-10(19)12(21)13(22)17(26-8)27-15-11(20)9(2)25-16(14(15)23)24-7-5-3-4-6-18/h8-17,19-23H,3-7,18H2,1-2H3/t8-,9-,10-,11-,12+,13+,14+,15+,16+,17+/m0/s1

> <INCHIKEY>
DAAWJNPTSNEVJE-KOYJXYEQSA-N

> <PUBMED_CITATION>
28945368

$$$$

Ketcher 11081713172D 1   1.00000     0.00000     0

 30 31  0     1  0            999 V2000
   38.0818  -30.5781    0.0000 C   0  0  0  0  0  0  0  0  0  0  0  0
   38.0818  -31.5781    0.0000 C   0  0  0  0  0  0  0  0  0  0  0  0
   37.2157  -30.0781    0.0000 O   0  0  0  0  0  0  0  0  0  0  0  0
   37.2157  -32.0780    0.0000 C   0  0  0  0  0  0  0  0  0  0  0  0
   36.3497  -30.5781    0.0000 C   0  0  0  0  0  0  0  0  0  0  0  0
   36.3497  -31.5781    0.0000 C   0  0  0  0  0  0  0  0  0  0  0  0
   38.9478  -30.0781    0.0000 O   0  0  0  0  0  0  0  0  0  0  0  0
   38.9478  -32.0780    0.0000 O   0  0  0  0  0  0  0  0  0  0  0  0
   37.2157  -33.0780    0.0000 O   0  0  0  0  0  0  0  0  0  0  0  0
   35.4837  -32.0780    0.0000 O   0  0  0  0  0  0  0  0  0  0  0  0
   35.4837  -30.0781    0.0000 C   0  0  0  0  0  0  0  0  0  0  0  0
   34.6177  -30.5781    0.0000 O   0  0  0  0  0  0  0  0  0  0  0  0
   33.7517  -30.0781    0.0000 C   0  0  0  0  0  0  0  0  0  0  0  0
   32.8857  -30.5780    0.0000 C   0  0  0  0  0  0  0  0  0  0  0  0
   33.7517  -29.0780    0.0000 O   0  0  0  0  0  0  0  0  0  0  0  0
   32.0197  -30.0779    0.0000 C   0  0  0  0  0  0  0  0  0  0  0  0
   32.8857  -28.5780    0.0000 C   0  0  0  0  0  0  0  0  0  0  0  0
   32.0197  -29.0780    0.0000 C   0  0  0  0  0  0  0  0  0  0  0  0
   32.8856  -31.5780    0.0000 O   0  0  0  0  0  0  0  0  0  0  0  0
   31.1536  -30.5779    0.0000 O   0  0  0  0  0  0  0  0  0  0  0  0
   31.1537  -28.5779    0.0000 O   0  0  0  0  0  0  0  0  0  0  0  0
   32.8858  -27.5780    0.0000 C   0  0  0  0  0  0  0  0  0  0  0  0
   32.0198  -27.0780    0.0000 O   0  0  0  0  0  0  0  0  0  0  0  0
   33.7518  -27.0780    0.0000 O   0  0  0  0  0  0  0  0  0  0  0  0
   39.8138  -30.5781    0.0000 C   0  0  0  0  0  0  0  0  0  0  0  0
   40.6800  -30.0779    0.0000 C   0  0  0  0  0  0  0  0  0  0  0  0
   41.5460  -30.5779    0.0000 C   0  0  0  0  0  0  0  0  0  0  0  0
   42.4120  -30.0779    0.0000 C   0  0  0  0  0  0  0  0  0  0  0  0
   43.2781  -30.5779    0.0000 C   0  0  0  0  0  0  0  0  0  0  0  0
   44.1441  -30.0779    0.0000 N   0  0  0  0  0  0  0  0  0  0  0  0
  1  2  1  0     0  0
  1  3  1  0     0  0
  2  4  1  0     0  0
  3  5  1  0     0  0
  4  6  1  0     0  0
  5  6  1  0     0  0
  1  7  1  6     0  0
  2  8  1  6     0  0
  4  9  1  1     0  0
  6 10  1  6     0  0
  5 11  1  1     0  0
 12 11  1  0     0  0
 13 14  1  0     0  0
 13 15  1  0     0  0
 14 16  1  0     0  0
 15 17  1  0     0  0
 16 18  1  0     0  0
 17 18  1  0     0  0
 13 12  1  6     0  0
 14 19  1  6     0  0
 16 20  1  1     0  0
 18 21  1  6     0  0
 17 22  1  1     0  0
 23 22  1  0     0  0
 22 24  2  0     0  0
 25  7  1  0     0  0
 26 25  1  0     0  0
 27 26  1  0     0  0
 28 27  1  0     0  0
 29 28  1  0     0  0
 30 29  1  0     0  0
M  END
> <ID>
CHEBI:138957

> <NAME>
alpha-D-GlcpA-(1->6)-alpha-D-GlcpO[CH2]5NH2

> <DEFINITION>
A disaccharide derivative consisting of an α-D-glucosyl residue glycosidically linked to a 5-aminopentyl group and which carries at O-6 an α-D-glucosyluronic acid residue.

> <STAR>
3

> <SYNONYM>
GlcAalpha1-6GlcalphaO[CH2]5NH2; alpha-D-GlcA-(1->6)-alpha-D-GlcO[CH2]5NH2; 5-aminopentyl alpha-D-glucuronosyl-(1->6)-alpha-D-glucoside; 5-aminopentyl alpha-D-glucopyranuronosyl-(1->6)-alpha-D-glucopyranoside; 5-aminopentyl 6-O-alpha-D-glucopyranuronosyl-alpha-D-glucopyranoside

> <IUPAC_NAME>
5-aminopentyl alpha-D-(glucopyranosyluronic acid)-(1->6)-alpha-D-glucopyranoside

> <FORMULA>
C17H31NO12

> <MASS>
441.428

> <MONOISOTOPIC_MASS>
441.18463

> <CHARGE>
0

> <SMILES>
[C@H]1([C@@H]([C@H]([C@@H]([C@H](O1)CO[C@@H]2[C@@H]([C@H]([C@@H]([C@H](O2)C(O)=O)O)O)O)O)O)O)OCCCCCN

> <INCHI>
InChI=1S/C17H31NO12/c18-4-2-1-3-5-27-16-12(23)9(20)8(19)7(29-16)6-28-17-13(24)10(21)11(22)14(30-17)15(25)26/h7-14,16-17,19-24H,1-6,18H2,(H,25,26)/t7-,8-,9+,10+,11+,12-,13-,14+,16+,17+/m1/s1

> <INCHIKEY>
NMNJBMQYYJQVSZ-AMJUTHHBSA-N

> <PUBMED_CITATION>
28945368

$$$$

Ketcher 11081714122D 1   1.00000     0.00000     0

 48 51  0     1  0            999 V2000
   10.7979  -56.5304    0.0000 C   0  0  0  0  0  0  0  0  0  0  0  0
   10.7979  -57.5305    0.0000 C   0  0  0  0  0  0  0  0  0  0  0  0
    9.9318  -56.0304    0.0000 O   0  0  0  0  0  0  0  0  0  0  0  0
    9.9318  -58.0305    0.0000 C   0  0  0  0  0  0  0  0  0  0  0  0
    9.0658  -56.5304    0.0000 C   0  0  0  0  0  0  0  0  0  0  0  0
    9.0658  -57.5305    0.0000 C   0  0  0  0  0  0  0  0  0  0  0  0
   11.6639  -56.0304    0.0000 O   0  0  0  0  0  0  0  0  0  0  0  0
   11.6639  -58.0305    0.0000 O   0  0  0  0  0  0  0  0  0  0  0  0
    9.9318  -59.0305    0.0000 O   0  0  0  0  0  0  0  0  0  0  0  0
    8.1998  -58.0305    0.0000 O   0  0  0  0  0  0  0  0  0  0  0  0
    8.1998  -56.0304    0.0000 C   0  0  0  0  0  0  0  0  0  0  0  0
   14.2621  -54.5305    0.0000 C   0  0  0  0  0  0  0  0  0  0  0  0
   14.2621  -55.5305    0.0000 C   0  0  0  0  0  0  0  0  0  0  0  0
   13.3959  -54.0306    0.0000 O   0  0  0  0  0  0  0  0  0  0  0  0
   13.3959  -56.0304    0.0000 C   0  0  0  0  0  0  0  0  0  0  0  0
   12.5299  -54.5305    0.0000 C   0  0  0  0  0  0  0  0  0  0  0  0
   12.5299  -55.5305    0.0000 C   0  0  0  0  0  0  0  0  0  0  0  0
   15.1281  -54.0306    0.0000 O   0  0  0  0  0  0  0  0  0  0  0  0
   15.1281  -56.0304    0.0000 O   0  0  0  0  0  0  0  0  0  0  0  0
   13.3959  -57.0304    0.0000 O   0  0  0  0  0  0  0  0  0  0  0  0
   11.6639  -54.0306    0.0000 C   0  0  0  0  0  0  0  0  0  0  0  0
   10.7979  -54.5305    0.0000 O   0  0  0  0  0  0  0  0  0  0  0  0
   15.9941  -51.5305    0.0000 C   0  0  0  0  0  0  0  0  0  0  0  0
   15.9941  -52.5305    0.0000 C   0  0  0  0  0  0  0  0  0  0  0  0
   15.1281  -51.0305    0.0000 O   0  0  0  0  0  0  0  0  0  0  0  0
   15.1281  -53.0306    0.0000 C   0  0  0  0  0  0  0  0  0  0  0  0
   14.2621  -51.5305    0.0000 C   0  0  0  0  0  0  0  0  0  0  0  0
   14.2621  -52.5305    0.0000 C   0  0  0  0  0  0  0  0  0  0  0  0
   16.8601  -51.0305    0.0000 O   0  0  0  0  0  0  0  0  0  0  0  0
   16.8601  -53.0306    0.0000 O   0  0  0  0  0  0  0  0  0  0  0  0
   13.3961  -53.0306    0.0000 O   0  0  0  0  0  0  0  0  0  0  0  0
   13.3961  -51.0305    0.0000 C   0  0  0  0  0  0  0  0  0  0  0  0
   17.7263  -48.5305    0.0000 C   0  0  0  0  0  0  0  0  0  0  0  0
   17.7263  -49.5306    0.0000 C   0  0  0  0  0  0  0  0  0  0  0  0
   16.8601  -48.0305    0.0000 O   0  0  0  0  0  0  0  0  0  0  0  0
   16.8601  -50.0306    0.0000 C   0  0  0  0  0  0  0  0  0  0  0  0
   15.9941  -48.5305    0.0000 C   0  0  0  0  0  0  0  0  0  0  0  0
   15.9941  -49.5306    0.0000 C   0  0  0  0  0  0  0  0  0  0  0  0
   18.5923  -48.0305    0.0000 O   0  0  0  0  0  0  0  0  0  0  0  0
   18.5923  -50.0306    0.0000 O   0  0  0  0  0  0  0  0  0  0  0  0
   15.1281  -50.0306    0.0000 O   0  0  0  0  0  0  0  0  0  0  0  0
   15.1281  -48.0305    0.0000 C   0  0  0  0  0  0  0  0  0  0  0  0
   19.4583  -48.5305    0.0000 C   0  0  0  0  0  0  0  0  0  0  0  0
   20.3244  -48.0304    0.0000 C   0  0  0  0  0  0  0  0  0  0  0  0
   21.1904  -48.5304    0.0000 C   0  0  0  0  0  0  0  0  0  0  0  0
   22.0563  -48.0304    0.0000 C   0  0  0  0  0  0  0  0  0  0  0  0
   22.9225  -48.5304    0.0000 C   0  0  0  0  0  0  0  0  0  0  0  0
   23.7885  -48.0304    0.0000 N   0  0  0  0  0  0  0  0  0  0  0  0
  1  2  1  0     0  0
  1  3  1  0     0  0
  2  4  1  0     0  0
  3  5  1  0     0  0
  4  6  1  0     0  0
  5  6  1  0     0  0
  1  7  1  6     0  0
  2  8  1  6     0  0
  4  9  1  6     0  0
  6 10  1  1     0  0
  5 11  1  6     0  0
 12 13  1  0     0  0
 12 14  1  0     0  0
 13 15  1  0     0  0
 14 16  1  0     0  0
 15 17  1  0     0  0
 16 17  1  0     0  0
 12 18  1  1     0  0
 13 19  1  6     0  0
 15 20  1  1     0  0
 17  7  1  6     0  0
 16 21  1  1     0  0
 22 21  1  0     0  0
 23 24  1  0     0  0
 23 25  1  0     0  0
 24 26  1  0     0  0
 25 27  1  0     0  0
 26 28  1  0     0  0
 27 28  1  0     0  0
 23 29  1  1     0  0
 24 30  1  6     0  0
 26 18  1  6     0  0
 28 31  1  1     0  0
 27 32  1  6     0  0
 33 34  1  0     0  0
 33 35  1  0     0  0
 34 36  1  0     0  0
 35 37  1  0     0  0
 36 38  1  0     0  0
 37 38  1  0     0  0
 33 39  1  1     0  0
 34 40  1  6     0  0
 36 29  1  6     0  0
 38 41  1  1     0  0
 37 42  1  6     0  0
 43 39  1  0     0  0
 44 43  1  0     0  0
 45 44  1  0     0  0
 46 45  1  0     0  0
 47 46  1  0     0  0
 48 47  1  0     0  0
M  END
> <ID>
CHEBI:138958

> <NAME>
beta-L-Rhap-(1->4)-beta-D-Glcp-(1->3)-alpha-L-Rhap-(1->3)-alpha-L-RhapO[CH2]5NH2

> <DEFINITION>
A tetrasaccharide derivative consisting of an α-L-rhamnosyl residue glycosidically linked to a 5-aminopentyl group and which carries at O-3 a β-L-rhamnosyl-(1→4)-β-D-glucosyl-(1→3)-α-L-rhamnosyl trisaccharide unit.

> <STAR>
3

> <SYNONYM>
Rhabeta1-4Glcbeta1-3Rhaalpha1-3RhaalphaO[CH2]5NH2; beta-L-Rha-(1->4)-beta-D-Glc-(1->3)-alpha-L-Rha-(1->3)-alpha-L-RhaO[CH2]5NH2; 5-aminopentyl beta-L-rhamnosyl-(1->4)-beta-D-glucosyl-(1->3)-alpha-L-rhamnosyl-(1->3)-alpha-L-rhamnoside; 5-aminopentyl 6-deoxy-beta-L-mannopyranosyl-(1->4)-beta-D-glucopyranosyl-(1->3)-6-deoxy-alpha-L-mannopyranosyl-(1->3)-6-deoxy-alpha-L-mannopyranoside

> <IUPAC_NAME>
5-aminopentyl beta-L-rhamnopyranosyl-(1->4)-beta-D-glucopyranosyl-(1->3)-alpha-L-rhamnopyranosyl-(1->3)-alpha-L-rhamnopyranoside

> <FORMULA>
C29H53NO18

> <MASS>
703.728

> <MONOISOTOPIC_MASS>
703.32626

> <CHARGE>
0

> <SMILES>
[C@H]1([C@@H]([C@@H]([C@H]([C@@H](O1)C)O)O)O)O[C@H]2[C@@H]([C@H]([C@@H](O[C@@H]2CO)O[C@H]3[C@H]([C@@H](O[C@H]([C@@H]3O)C)O[C@H]4[C@H]([C@@H](O[C@H]([C@@H]4O)C)OCCCCCN)O)O)O)O

> <INCHI>
InChI=1S/C29H53NO18/c1-10-14(32)17(35)19(37)27(43-10)46-23-13(9-31)45-28(20(38)18(23)36)47-25-16(34)12(3)44-29(22(25)40)48-24-15(33)11(2)42-26(21(24)39)41-8-6-4-5-7-30/h10-29,31-40H,4-9,30H2,1-3H3/t10-,11-,12-,13+,14-,15-,16-,17+,18+,19+,20+,21+,22+,23+,24+,25+,26+,27+,28-,29-/m0/s1

> <INCHIKEY>
YFJITJFSFTXBDG-NCIYHSROSA-N

> <PUBMED_CITATION>
28945368

$$$$

Ketcher 11081715172D 1   1.00000     0.00000     0

 50 53  0     1  0            999 V2000
   14.6580  -67.0177    0.0000 O   0  0  0  0  0  0  0  0  0  0  0  0
   15.5242  -64.5177    0.0000 C   0  0  0  0  0  0  0  0  0  0  0  0
   15.5242  -65.5177    0.0000 C   0  0  0  0  0  0  0  0  0  0  0  0
   14.6580  -64.0177    0.0000 O   0  0  0  0  0  0  0  0  0  0  0  0
   14.6580  -66.0177    0.0000 C   0  0  0  0  0  0  0  0  0  0  0  0
   13.7921  -64.5177    0.0000 C   0  0  0  0  0  0  0  0  0  0  0  0
   13.7921  -65.5177    0.0000 C   0  0  0  0  0  0  0  0  0  0  0  0
   16.3902  -64.0177    0.0000 O   0  0  0  0  0  0  0  0  0  0  0  0
   16.3902  -66.0177    0.0000 O   0  0  0  0  0  0  0  0  0  0  0  0
   12.9261  -66.0177    0.0000 O   0  0  0  0  0  0  0  0  0  0  0  0
   12.9261  -64.0177    0.0000 C   0  0  0  0  0  0  0  0  0  0  0  0
   18.9882  -70.5176    0.0000 C   0  0  0  0  0  0  0  0  0  0  0  0
   19.8544  -71.0176    0.0000 C   0  0  0  0  0  0  0  0  0  0  0  0
   18.1222  -71.0176    0.0000 O   0  0  0  0  0  0  0  0  0  0  0  0
   19.8544  -72.0177    0.0000 C   0  0  0  0  0  0  0  0  0  0  0  0
   18.1222  -72.0176    0.0000 C   0  0  0  0  0  0  0  0  0  0  0  0
   18.9882  -72.5176    0.0000 C   0  0  0  0  0  0  0  0  0  0  0  0
   18.9882  -69.5176    0.0000 O   0  0  0  0  0  0  0  0  0  0  0  0
   20.7204  -70.5176    0.0000 O   0  0  0  0  0  0  0  0  0  0  0  0
   20.7204  -72.5177    0.0000 O   0  0  0  0  0  0  0  0  0  0  0  0
   18.9882  -73.5176    0.0000 O   0  0  0  0  0  0  0  0  0  0  0  0
   17.2562  -72.5176    0.0000 C   0  0  0  0  0  0  0  0  0  0  0  0
   17.2562  -73.5176    0.0000 O   0  0  0  0  0  0  0  0  0  0  0  0
   16.3902  -72.0176    0.0000 O   0  0  0  0  0  0  0  0  0  0  0  0
   17.2562  -66.5177    0.0000 C   0  0  0  0  0  0  0  0  0  0  0  0
   18.1222  -66.0177    0.0000 C   0  0  0  0  0  0  0  0  0  0  0  0
   17.2563  -67.5177    0.0000 O   0  0  0  0  0  0  0  0  0  0  0  0
   18.9882  -66.5177    0.0000 C   0  0  0  0  0  0  0  0  0  0  0  0
   18.1222  -68.0177    0.0000 C   0  0  0  0  0  0  0  0  0  0  0  0
   18.9882  -67.5177    0.0000 C   0  0  0  0  0  0  0  0  0  0  0  0
   18.1222  -65.0177    0.0000 O   0  0  0  0  0  0  0  0  0  0  0  0
   19.8544  -66.0177    0.0000 O   0  0  0  0  0  0  0  0  0  0  0  0
   19.8544  -68.0177    0.0000 O   0  0  0  0  0  0  0  0  0  0  0  0
   18.1222  -69.0176    0.0000 C   0  0  0  0  0  0  0  0  0  0  0  0
   17.2563  -61.5177    0.0000 C   0  0  0  0  0  0  0  0  0  0  0  0
   17.2563  -62.5177    0.0000 C   0  0  0  0  0  0  0  0  0  0  0  0
   16.3902  -61.0177    0.0000 O   0  0  0  0  0  0  0  0  0  0  0  0
   16.3902  -63.0177    0.0000 C   0  0  0  0  0  0  0  0  0  0  0  0
   15.5242  -61.5177    0.0000 C   0  0  0  0  0  0  0  0  0  0  0  0
   15.5242  -62.5177    0.0000 C   0  0  0  0  0  0  0  0  0  0  0  0
   18.1222  -61.0177    0.0000 O   0  0  0  0  0  0  0  0  0  0  0  0
   18.1222  -63.0177    0.0000 O   0  0  0  0  0  0  0  0  0  0  0  0
   14.6582  -63.0177    0.0000 O   0  0  0  0  0  0  0  0  0  0  0  0
   14.6582  -61.0177    0.0000 C   0  0  0  0  0  0  0  0  0  0  0  0
   18.9882  -61.5177    0.0000 C   0  0  0  0  0  0  0  0  0  0  0  0
   19.8544  -61.0177    0.0000 C   0  0  0  0  0  0  0  0  0  0  0  0
   20.7204  -61.5177    0.0000 C   0  0  0  0  0  0  0  0  0  0  0  0
   21.5864  -61.0177    0.0000 C   0  0  0  0  0  0  0  0  0  0  0  0
   22.4524  -61.5177    0.0000 C   0  0  0  0  0  0  0  0  0  0  0  0
   23.3184  -61.0177    0.0000 N   0  0  0  0  0  0  0  0  0  0  0  0
  2  3  1  0     0  0
  2  4  1  0     0  0
  3  5  1  0     0  0
  4  6  1  0     0  0
  5  7  1  0     0  0
  6  7  1  0     0  0
  2  8  1  1     0  0
  3  9  1  6     0  0
  5  1  1  6     0  0
  7 10  1  1     0  0
  6 11  1  6     0  0
 12 13  1  0     0  0
 12 14  1  0     0  0
 13 15  1  0     0  0
 14 16  1  0     0  0
 15 17  1  0     0  0
 16 17  1  0     0  0
 12 18  1  6     0  0
 13 19  1  6     0  0
 15 20  1  1     0  0
 17 21  1  6     0  0
 16 22  1  1     0  0
 23 22  1  0     0  0
 22 24  2  0     0  0
 25 26  1  0     0  0
 25 27  1  0     0  0
 26 28  1  0     0  0
 27 29  1  0     0  0
 28 30  1  0     0  0
 29 30  1  0     0  0
 25  9  1  6     0  0
 26 31  1  6     0  0
 28 32  1  1     0  0
 30 33  1  6     0  0
 29 34  1  1     0  0
 18 34  1  0     0  0
 35 36  1  0     0  0
 35 37  1  0     0  0
 36 38  1  0     0  0
 37 39  1  0     0  0
 38 40  1  0     0  0
 39 40  1  0     0  0
 35 41  1  1     0  0
 36 42  1  6     0  0
 38  8  1  6     0  0
 40 43  1  1     0  0
 39 44  1  6     0  0
 45 41  1  0     0  0
 46 45  1  0     0  0
 47 46  1  0     0  0
 48 47  1  0     0  0
 49 48  1  0     0  0
 50 49  1  0     0  0
M  END
> <ID>
CHEBI:138960

> <NAME>
alpha-D-GlcpA-(1->6)-alpha-D-Glcp-(1->2)-alpha-L-Rhap-(1->3)-alpha-L-RhapO[CH2]5NH2

> <DEFINITION>
A linear tetrasaccharide derivative consisting of an α-L-rhamnosyl residue glycosidically linked to a 5-aminopentyl group and which carries at O-3 an α-D-glucuronosyl-(1→6)-α-D-glucosyl-(1→2)-α-L-rhamnosyl trisaccharide unit.

> <STAR>
3

> <SYNONYM>
GlcAalpha1-6Glcalpha1-2Rhaalpha1-3RhaalphaO[CH2]5NH2; alpha-D-GlcA-(1->6)-alpha-D-Glc-(1->2)-alpha-L-Rha-(1->3)-alpha-L-RhaO[CH2]5NH2; 5-aminopentyl alpha-D-glucuronosyl-(1->6)-alpha-D-glucosyl-(1->2)-alpha-L-rhamnosyl-(1->3)-alpha-L-rhamnoside; 5-aminopentyl alpha-D-glucopyranuronosyl-(1->6)-alpha-D-glucopyranosyl-(1->2)-alpha-L-rhamnopyranosyl-(1->3)-alpha-L-rhamnopyranoside; 5-aminopentyl (alpha-D-glucopyranosyuronic acid)-(1->6)-alpha-D-glucopyranosyl-(1->2)-6-deoxy-alpha-L-mannopyranosyl-(1->3)-6-deoxy-alpha-L-mannopyranoside

> <IUPAC_NAME>
5-aminopentyl (alpha-D-glucopyranosyluronic acid)-(1->6)-alpha-D-glucopyranosyl-(1->2)-alpha-L-rhamnopyranosyl-(1->3)-alpha-L-rhamnopyranoside

> <FORMULA>
C29H51NO20

> <MASS>
733.711

> <MONOISOTOPIC_MASS>
733.30044

> <CHARGE>
0

> <SMILES>
O[C@H]1[C@H]([C@@H](O[C@H]([C@@H]1O)C)O[C@H]2[C@H]([C@@H](O[C@H]([C@@H]2O)C)OCCCCCN)O)O[C@@H]3[C@@H]([C@H]([C@@H]([C@H](O3)CO[C@@H]4[C@@H]([C@H]([C@@H]([C@H](O4)C(O)=O)O)O)O)O)O)O

> <INCHI>
InChI=1S/C29H51NO20/c1-9-12(31)17(36)24(29(46-9)48-22-13(32)10(2)45-27(21(22)40)43-7-5-3-4-6-30)50-28-20(39)15(34)14(33)11(47-28)8-44-26-19(38)16(35)18(37)23(49-26)25(41)42/h9-24,26-29,31-40H,3-8,30H2,1-2H3,(H,41,42)/t9-,10-,11+,12-,13-,14+,15-,16-,17+,18-,19+,20+,21+,22+,23-,24+,26-,27+,28+,29-/m0/s1

> <INCHIKEY>
DHQMSOMBOVUZCG-PHNHHGMCSA-N

> <PUBMED_CITATION>
28945368

$$$$

Ketcher 11091715212D 1   1.00000     0.00000     0

 22 22  0     1  0            999 V2000
   13.3109   -7.1807    0.0000 C   0  0  0  0  0  0  0  0  0  0  0  0
   13.3109   -8.1806    0.0000 C   0  0  0  0  0  0  0  0  0  0  0  0
   12.4449   -6.6807    0.0000 O   0  0  0  0  0  0  0  0  0  0  0  0
   12.4449   -8.6806    0.0000 C   0  0  0  0  0  0  0  0  0  0  0  0
   11.5789   -7.1807    0.0000 C   0  0  0  0  0  0  0  0  0  0  0  0
   11.5789   -8.1806    0.0000 C   0  0  0  0  0  0  0  0  0  0  0  0
   14.1769   -6.6807    0.0000 O   0  0  0  0  0  0  0  0  0  0  0  0
   14.1769   -8.6806    0.0000 O   0  0  0  0  0  0  0  0  0  0  0  0
   12.4449   -9.6806    0.0000 O   0  0  0  0  0  0  0  0  0  0  0  0
   10.7129   -8.6806    0.0000 O   0  0  0  0  0  0  0  0  0  0  0  0
   10.7129   -6.6807    0.0000 C   0  0  0  0  0  0  0  0  0  0  0  0
    9.8469   -7.1807    0.0000 N   0  0  0  0  0  0  0  0  0  0  0  0
   10.7129   -5.6807    0.0000 O   0  0  0  0  0  0  0  0  0  0  0  0
    8.9808   -5.6806    0.0000 C   0  0  0  0  0  0  0  0  0  0  0  0
    8.1148   -5.1806    0.0000 O   0  0  0  0  0  0  0  0  0  0  0  0
    8.9808   -6.6807    0.0000 C   0  0  0  0  0  0  0  0  0  0  0  0
    6.3828  -10.1807    0.0000 N   0  0  0  0  0  0  0  0  0  0  0  0
    7.2488   -9.6807    0.0000 C   0  0  0  0  0  0  0  0  0  0  0  0
    8.1148   -7.1807    0.0000 C   0  0  0  0  0  0  0  0  0  0  0  0
    7.2488   -8.6807    0.0000 C   0  0  0  0  0  0  0  0  0  0  0  0
    8.1149   -8.1806    0.0000 C   0  0  0  0  0  0  0  0  0  0  0  0
    9.8469   -5.1806    0.0000 O   0  0  0  0  0  0  0  0  0  0  0  0
  1  2  1  0     0  0
  1  3  1  0     0  0
  2  4  1  0     0  0
  3  5  1  0     0  0
  4  6  1  0     0  0
  5  6  1  0     0  0
  1  7  1  6     0  0
  2  8  1  6     0  0
  4  9  1  1     0  0
  6 10  1  1     0  0
  5 11  1  1     0  0
 12 11  1  0     0  0
 11 13  2  0     0  0
 14 15  2  0     0  0
 14 16  1  0     0  0
 16 12  1  1     0  0
 16 19  1  0     0  0
 17 18  1  0     0  0
 18 20  1  0     0  0
 19 21  1  0     0  0
 20 21  1  0     0  0
 22 14  1  0     0  0
M  END
> <ID>
CHEBI:138978

> <NAME>
Lys-GalA

> <DEFINITION>
An L-lysine derivative arising from amide formation between N-2 of L-lysine and the carboxy group of α-D-galactopyranuronic acid.

> <STAR>
3

> <SYNONYM>
N(2)-(alpha-D-galacturonoyl)-L-lysine; N(2)-(alpha-D-galactopyranuronoyl)-L-lysine; L-lysine-alpha-D-galacturonic acid; 6-deoxy-6-(N(2)-L-lysino)-alpha-D-galactopyranuronic acid

> <IUPAC_NAME>
(2S)-6-amino-2-{[(2S,3R,4S,5R,6S)-3,4,5,6-tetrahydroxyoxane-2-carbonyl]amino}hexanoic acid

> <FORMULA>
C12H22N2O8

> <MASS>
322.312

> <MONOISOTOPIC_MASS>
322.13762

> <CHARGE>
0

> <SMILES>
[C@H]1([C@@H]([C@H]([C@H]([C@H](O1)C(N[C@H](C(=O)O)CCCCN)=O)O)O)O)O

> <INCHI>
InChI=1S/C12H22N2O8/c13-4-2-1-3-5(11(19)20)14-10(18)9-7(16)6(15)8(17)12(21)22-9/h5-9,12,15-17,21H,1-4,13H2,(H,14,18)(H,19,20)/t5-,6-,7+,8+,9-,12-/m0/s1

> <INCHIKEY>
DDPHRKALDAQUFC-IKSYMUQXSA-N

> <PUBMED_CITATION>
28889208

$$$$

Marvin  03060611162D          
 
 14 15  0  0  0  0            999 V2000
   -0.3852    0.2341    0.0000 C   0  0  0  0  0  0  0  0  0  0  0  0
    0.3293    0.6466    0.0000 C   0  0  0  0  0  0  0  0  0  0  0  0
   -0.3852   -0.5909    0.0000 C   0  0  0  0  0  0  0  0  0  0  0  0
   -1.0997    0.6466    0.0000 C   0  0  0  0  0  0  0  0  0  0  0  0
    1.0437    0.2341    0.0000 C   0  0  3  0  0  0  0  0  0  0  0  0
   -1.0997   -1.0034    0.0000 C   0  0  0  0  0  0  0  0  0  0  0  0
    1.7582    0.6466    0.0000 N   0  0  0  0  0  0  0  0  0  0  0  0
    1.0437   -0.5909    0.0000 C   0  0  0  0  0  0  0  0  0  0  0  0
    2.4727    0.2341    0.0000 C   0  0  0  0  0  0  0  0  0  0  0  0
   -1.8142    0.2341    0.0000 C   0  0  0  0  0  0  0  0  0  0  0  0
   -3.0837   -0.1784    0.0000 C   0  0  0  0  0  0  0  0  0  0  0  0
   -1.8142   -0.5909    0.0000 C   0  0  0  0  0  0  0  0  0  0  0  0
   -2.5988    0.4890    0.0000 O   0  0  0  0  0  0  0  0  0  0  0  0
   -2.5988   -0.8458    0.0000 O   0  0  0  0  0  0  0  0  0  0  0  0
  1  2  1  0  0  0  0
  1  3  1  0  0  0  0
  1  4  2  0  0  0  0
  2  5  1  0  0  0  0
  3  6  2  0  0  0  0
  4 10  1  0  0  0  0
  5  7  1  0  0  0  0
  5  8  1  0  0  0  0
  6 12  1  0  0  0  0
  7  9  1  0  0  0  0
 10 13  1  0  0  0  0
 11 14  1  0  0  0  0
 11 13  1  0  0  0  0
 14 12  1  0  0  0  0
 10 12  2  0  0  0  0
M  END
> <ID>
CHEBI:1391

> <NAME>
3,4-methylenedioxymethamphetamine

> <DEFINITION>
A member of the class of  benzodioxoles that is 1,3-benzodioxole substituted by a 2-(methylamino)propyl group at position 5.

> <STAR>
3

> <SYNONYM>
N-Methyl-3,4-methylenedioxyamphetamine; N,alpha-dimethyl-1,3-benzodioxole-5-ethanamine; MDMA; MDMA; ecstasy; DL-(3,4-Methylenedioxy)methamphetamine; 3,4-Methylenedioxymethamphetamine; 1-(1,3-Benzodioxol-5-yl)-N-methyl-2-propanamine; (RS)-3,4-(methylenedioxy)methamphetamine

> <IUPAC_NAME>
1-(1,3-benzodioxol-5-yl)-N-methylpropan-2-amine

> <FORMULA>
C11H15NO2

> <MASS>
193.24234

> <MONOISOTOPIC_MASS>
193.11028

> <CHARGE>
0

> <SMILES>
CNC(C)Cc1ccc2OCOc2c1

> <INCHI>
InChI=1S/C11H15NO2/c1-8(12-2)5-9-3-4-10-11(6-9)14-7-13-10/h3-4,6,8,12H,5,7H2,1-2H3

> <INCHIKEY>
SHXWCVYOXRDMCX-UHFFFAOYSA-N

> <CAS_REGISTRY_NUMBER>
42542-10-9

> <REAXYS_REGISTRY_NUMBER>
158675

> <CHEMIDPLUS>
42542-10-9

> <DRUGBANK_ACCESSION>
DB01454

> <HMDB_ACCESSION>
HMDB0041931

> <KEGG_COMPOUND_ACCESSION>
C07577

> <WIKIPEDIA_ACCESSION>
MDMA

> <PUBMED_CITATION>
15062945; 18570171

$$$$

Marvin  11210623382D          

 12 12  0  0  0  0            999 V2000
    0.0000    0.6188    0.0000 C   0  0  0  0  0  0  0  0  0  0  0  0
    0.7145    0.2063    0.0000 C   0  0  0  0  0  0  0  0  0  0  0  0
   -0.7145    0.2063    0.0000 C   0  0  0  0  0  0  0  0  0  0  0  0
    0.0000    1.4438    0.0000 C   0  0  0  0  0  0  0  0  0  0  0  0
    0.7145   -0.6187    0.0000 C   0  0  0  0  0  0  0  0  0  0  0  0
   -0.7145   -0.6187    0.0000 C   0  0  0  0  0  0  0  0  0  0  0  0
    0.7145    1.8563    0.0000 O   0  0  0  0  0  0  0  0  0  0  0  0
    0.0000   -1.0312    0.0000 C   0  0  0  0  0  0  0  0  0  0  0  0
    1.4289   -1.0312    0.0000 Br  0  0  0  0  0  0  0  0  0  0  0  0
   -1.4289   -1.0312    0.0000 Br  0  0  0  0  0  0  0  0  0  0  0  0
    0.0000   -1.8562    0.0000 O   0  0  0  0  0  0  0  0  0  0  0  0
   -0.7145    1.8563    0.0000 O   0  0  0  0  0  0  0  0  0  0  0  0
  1  2  2  0  0  0  0
  1  3  1  0  0  0  0
  1  4  1  0  0  0  0
  2  5  1  0  0  0  0
  3  6  2  0  0  0  0
  4 12  2  0  0  0  0
  4  7  1  0  0  0  0
  5  8  2  0  0  0  0
  5  9  1  0  0  0  0
  6 10  1  0  0  0  0
  8 11  1  0  0  0  0
  6  8  1  0  0  0  0
M  END
> <ID>
CHEBI:1395

> <NAME>
3,5-dibromo-4-hydroxybenzoic acid

> <DEFINITION>
A monohydroxybenzoic acid that is p-salicylic acid with bromo- substituents at C-3 and C-5 of the benzene ring.

> <STAR>
3

> <SYNONYM>
DiBrHBz; bromoxynylbenzoic acid; acide dibromo-3,5 hydroxy-4-benzoique; 3,5-dibromo-p-salicylic acid; 3,5-Dibrom-4-hydroxy-benzoesaeure

> <IUPAC_NAME>
3,5-dibromo-4-hydroxybenzoic acid

> <FORMULA>
C7H4Br2O3

> <MASS>
295.91286

> <MONOISOTOPIC_MASS>
293.85272

> <CHARGE>
0

> <SMILES>
OC(=O)c1cc(Br)c(O)c(Br)c1

> <INCHI>
InChI=1S/C7H4Br2O3/c8-4-1-3(7(11)12)2-5(9)6(4)10/h1-2,10H,(H,11,12)

> <INCHIKEY>
PHWAJJWKNLWZGJ-UHFFFAOYSA-N

> <BEILSTEIN_REGISTRY_NUMBER>
2416147

> <CAS_REGISTRY_NUMBER>
3337-62-0

> <REAXYS_REGISTRY_NUMBER>
2416147

> <CHEMIDPLUS>
3337-62-0

> <KEGG_COMPOUND_ACCESSION>
C03925

> <NIST_CHEMISTRY_WEBBOOK>
3337-62-0

> <PUBMED_CITATION>
15589368

$$$$

Ketcher 02011811062D 1   1.00000     0.00000     0

 23 24  0     1  0            999 V2000
    7.5639   -2.4096    0.0000 C   0  0  0  0  0  0  0  0  0  0  0  0
    7.5639   -3.4095    0.0000 C   0  0  0  0  0  0  0  0  0  0  0  0
    6.6978   -1.9096    0.0000 O   0  0  0  0  0  0  0  0  0  0  0  0
    6.6978   -3.9095    0.0000 C   0  0  0  0  0  0  0  0  0  0  0  0
    5.8319   -2.4096    0.0000 C   0  0  0  0  0  0  0  0  0  0  0  0
    5.8319   -3.4095    0.0000 C   0  0  0  0  0  0  0  0  0  0  0  0
    8.4299   -1.9096    0.0000 O   0  0  0  0  0  0  0  0  0  0  0  0
    8.4299   -3.9095    0.0000 O   0  0  0  0  0  0  0  0  0  0  0  0
    6.6978   -4.9095    0.0000 O   0  0  0  0  0  0  0  0  0  0  0  0
    4.9659   -3.9095    0.0000 O   0  0  0  0  0  0  0  0  0  0  0  0
    4.9659   -1.9096    0.0000 C   0  0  0  0  0  0  0  0  0  0  0  0
    4.0999   -2.4096    0.0000 O   0  0  0  0  0  0  0  0  0  0  0  0
   10.1621   -4.9096    0.0000 O   0  0  0  0  0  0  0  0  0  0  0  0
    8.4299   -4.9096    0.0000 C   0  0  0  0  0  0  0  0  0  0  0  0
    9.2960   -5.4096    0.0000 C   0  0  0  0  0  0  0  0  0  0  0  0
    7.5638   -5.4097    0.0000 O   0  0  0  0  0  0  0  0  0  0  0  0
    9.2960   -6.4097    0.0000 C   0  0  0  0  0  0  0  0  0  0  0  0
    7.5638   -6.4097    0.0000 C   0  0  0  0  0  0  0  0  0  0  0  0
    8.4300   -6.9096    0.0000 C   0  0  0  0  0  0  0  0  0  0  0  0
   10.1621   -6.9097    0.0000 O   0  0  0  0  0  0  0  0  0  0  0  0
    8.4300   -7.9096    0.0000 O   0  0  0  0  0  0  0  0  0  0  0  0
    6.6978   -6.9096    0.0000 C   0  0  0  0  0  0  0  0  0  0  0  0
    9.2959   -2.4096    0.0000 C   0  0  0  0  0  0  0  0  0  0  0  0
  1  2  1  0     0  0
  1  3  1  0     0  0
  2  4  1  0     0  0
  3  5  1  0     0  0
  4  6  1  0     0  0
  5  6  1  0     0  0
  1  7  1  1     0  0
  2  8  1  6     0  0
  4  9  1  1     0  0
  6 10  1  1     0  0
  5 11  1  1     0  0
 12 11  1  0     0  0
 14 15  1  0     0  0
 14 16  1  0     0  0
 15 17  1  0     0  0
 16 18  1  0     0  0
 17 19  1  0     0  0
 18 19  1  0     0  0
 14  8  1  1     0  0
 15 13  1  6     0  0
 17 20  1  6     0  0
 19 21  1  1     0  0
 18 22  1  6     0  0
  7 23  1  0     0  0
M  END
> <ID>
CHEBI:139564

> <NAME>
methyl alpha-L-rhamnosyl-(1->2)-beta-D-galactoside

> <DEFINITION>
A methyl glycoside that consists of methyl β-D-galactoside having an α-L-rhamnosyl residue at the 2-position. A core disaccharide from the Streptococcus pneumoniae type 23F capsular polysaccharide antigen.

> <STAR>
3

> <SYNONYM>
methyl-alpha-L-rhamnopyranosyl-(1->2)-beta-D-galactopyranoside; methyl 6-deoxy-alpha-L-mannopyranosyl-(1->2)-beta-D-galactopyranoside; methyl 2-O-(6-deoxy-alpha-L-mannopyranosyl)-beta-D-galactopyranoside; alpha-L-Rhap-(1->2)-beta-D-GalpOMe; alpha-L-Rha-(1->2)-beta-D-GalOMe

> <IUPAC_NAME>
methyl alpha-L-rhamnopyranosyl-(1->2)-beta-D-galactopyranoside

> <FORMULA>
C13H24O10

> <MASS>
340.324

> <MONOISOTOPIC_MASS>
340.13695

> <CHARGE>
0

> <SMILES>
[C@@H]1([C@@H]([C@H]([C@H]([C@H](O1)CO)O)O)O[C@H]2[C@@H]([C@@H]([C@H]([C@@H](O2)C)O)O)O)OC

> <INCHI>
InChI=1S/C13H24O10/c1-4-6(15)8(17)10(19)12(21-4)23-11-9(18)7(16)5(3-14)22-13(11)20-2/h4-19H,3H2,1-2H3/t4-,5+,6-,7-,8+,9-,10+,11+,12-,13+/m0/s1

> <INCHIKEY>
ZUPSABSQBFCIOU-JSHOUVFRSA-N

> <REAXYS_REGISTRY_NUMBER>
3594027

> <PUBMED_CITATION>
20810102; 2346951; 27183571

$$$$

Ketcher 03301814422D 1   1.00000     0.00000     0

 39 41  0     1  0            999 V2000
   24.7499  -79.3748    0.0000 C   0  0  0  0  0  0  0  0  0  0  0  0
   24.7499  -80.3748    0.0000 C   0  0  0  0  0  0  0  0  0  0  0  0
   23.8838  -78.8748    0.0000 O   0  0  0  0  0  0  0  0  0  0  0  0
   23.8838  -80.8748    0.0000 C   0  0  0  0  0  0  0  0  0  0  0  0
   23.0178  -79.3748    0.0000 C   0  0  0  0  0  0  0  0  0  0  0  0
   23.0178  -80.3748    0.0000 C   0  0  0  0  0  0  0  0  0  0  0  0
   25.6159  -78.8748    0.0000 O   0  0  0  0  0  0  0  0  0  0  0  0
   25.6158  -80.8748    0.0000 O   0  0  0  0  0  0  0  0  0  0  0  0
   23.8837  -81.8748    0.0000 O   0  0  0  0  0  0  0  0  0  0  0  0
   22.1518  -80.8748    0.0000 O   0  0  0  0  0  0  0  0  0  0  0  0
   22.1518  -78.8748    0.0000 C   0  0  0  0  0  0  0  0  0  0  0  0
   21.2857  -79.3748    0.0000 O   0  0  0  0  0  0  0  0  0  0  0  0
   25.6158  -81.8748    0.0000 C   0  0  0  0  0  0  0  0  0  0  0  0
   26.4819  -82.3749    0.0000 C   0  0  0  0  0  0  0  0  0  0  0  0
   24.7498  -82.3749    0.0000 O   0  0  0  0  0  0  0  0  0  0  0  0
   26.4819  -83.3749    0.0000 C   0  0  0  0  0  0  0  0  0  0  0  0
   24.7498  -83.3748    0.0000 C   0  0  0  0  0  0  0  0  0  0  0  0
   25.6158  -83.8749    0.0000 C   0  0  0  0  0  0  0  0  0  0  0  0
   27.3479  -81.8749    0.0000 O   0  0  0  0  0  0  0  0  0  0  0  0
   27.3479  -83.8750    0.0000 O   0  0  0  0  0  0  0  0  0  0  0  0
   25.6158  -84.8749    0.0000 O   0  0  0  0  0  0  0  0  0  0  0  0
   23.8837  -83.8748    0.0000 C   0  0  0  0  0  0  0  0  0  0  0  0
   23.8837  -84.8748    0.0000 O   0  0  0  0  0  0  0  0  0  0  0  0
   26.4819  -76.3749    0.0000 C   0  0  0  0  0  0  0  0  0  0  0  0
   26.4818  -77.3750    0.0000 C   0  0  0  0  0  0  0  0  0  0  0  0
   25.6159  -75.8749    0.0000 O   0  0  0  0  0  0  0  0  0  0  0  0
   25.6159  -77.8750    0.0000 C   0  0  0  0  0  0  0  0  0  0  0  0
   24.7500  -76.3749    0.0000 C   0  0  0  0  0  0  0  0  0  0  0  0
   24.7500  -77.3750    0.0000 C   0  0  0  0  0  0  0  0  0  0  0  0
   27.3479  -75.8749    0.0000 O   0  0  0  0  0  0  0  0  0  0  0  0
   27.3479  -77.8750    0.0000 O   0  0  0  0  0  0  0  0  0  0  0  0
   23.8839  -77.8750    0.0000 O   0  0  0  0  0  0  0  0  0  0  0  0
   23.8839  -75.8749    0.0000 C   0  0  0  0  0  0  0  0  0  0  0  0
   28.2139  -76.3749    0.0000 C   0  0  0  0  0  0  0  0  0  0  0  0
   29.0799  -75.8749    0.0000 C   0  0  0  0  0  0  0  0  0  0  0  0
   29.9459  -76.3749    0.0000 C   0  0  0  0  0  0  0  0  0  0  0  0
   30.8120  -75.8749    0.0000 C   0  0  0  0  0  0  0  0  0  0  0  0
   31.6780  -76.3749    0.0000 C   0  0  0  0  0  0  0  0  0  0  0  0
   32.5441  -75.8749    0.0000 N   0  0  0  0  0  0  0  0  0  0  0  0
  1  2  1  0     0  0
  1  3  1  0     0  0
  2  4  1  0     0  0
  3  5  1  0     0  0
  4  6  1  0     0  0
  5  6  1  0     0  0
  1  7  1  6     0  0
  2  8  1  6     0  0
  4  9  1  1     0  0
  6 10  1  1     0  0
  5 11  1  1     0  0
 12 11  1  0     0  0
 13 14  1  0     0  0
 13 15  1  0     0  0
 14 16  1  0     0  0
 15 17  1  0     0  0
 16 18  1  0     0  0
 17 18  1  0     0  0
 13  8  1  1     0  0
 14 19  1  6     0  0
 16 20  1  1     0  0
 18 21  1  1     0  0
 17 22  1  1     0  0
 23 22  1  0     0  0
 24 25  1  0     0  0
 24 26  1  0     0  0
 25 27  1  0     0  0
 26 28  1  0     0  0
 27 29  1  0     0  0
 28 29  1  0     0  0
 24 30  1  6     0  0
 25 31  1  6     0  0
 27  7  1  6     0  0
 29 32  1  1     0  0
 28 33  1  6     0  0
 34 30  1  0     0  0
 35 34  1  0     0  0
 36 35  1  0     0  0
 37 36  1  0     0  0
 38 37  1  0     0  0
 39 38  1  0     0  0
M  END
> <ID>
CHEBI:140510

> <NAME>
beta-D-Galp-(1->2)-alpha-D-Galp-(1->3)-beta-L-RhapO[CH2]5NH2

> <DEFINITION>
A linear trisaccharide derivative consisting of β-D-galactose, α-D-galactose and β-L-rhamnose residues linked sequentially (1→2) and (1→3) with the rhamnose residue linked glycosidically to a 5-aminopentyl group.

> <STAR>
3

> <SYNONYM>
Galbeta1-2Galalpha1-3RhabetaO[CH2]5NH2; beta-D-Gal-(1->2)-alpha-D-Gal-(1->3)-beta-L-RhaO[CH2]5NH2; 5-aminopentyl beta-D-galactosyl-(1->2)-alpha-D-galactosyl-(1->3)-beta-L-rhamnoside; 5-aminopentyl beta-D-galactopyranosyl-(1->2)-alpha-D-galactopyranosyl-(1->3)-6-deoxy-beta-L-mannopyranoside

> <IUPAC_NAME>
5-aminopentyl beta-D-galactopyranosyl-(1->2)-alpha-D-galactopyranosyl-(1->3)-beta-L-rhamnopyranoside

> <FORMULA>
C23H43NO15

> <MASS>
573.586

> <MONOISOTOPIC_MASS>
573.26327

> <CHARGE>
0

> <SMILES>
[C@H]1([C@@H]([C@H]([C@H]([C@H](O1)CO)O)O)O[C@H]2[C@@H]([C@H]([C@H]([C@H](O2)CO)O)O)O)O[C@H]3[C@H]([C@H](O[C@H]([C@@H]3O)C)OCCCCCN)O

> <INCHI>
InChI=1S/C23H43NO15/c1-9-12(27)19(18(33)21(35-9)34-6-4-2-3-5-24)38-23-20(16(31)14(29)11(8-26)37-23)39-22-17(32)15(30)13(28)10(7-25)36-22/h9-23,25-33H,2-8,24H2,1H3/t9-,10+,11+,12-,13-,14-,15-,16-,17+,18+,19+,20+,21-,22-,23+/m0/s1

> <INCHIKEY>
RPLDOMMQOSXFFP-ASNNIWRRSA-N

> <PUBMED_CITATION>
29333751

$$$$

Ketcher 03301815292D 1   1.00000     0.00000     0

 42 44  0     1  0            999 V2000
   13.8105  -99.1063    0.0000 O   0  0  0  0  0  0  0  0  0  0  0  0
   14.6766  -96.6063    0.0000 C   0  0  0  0  0  0  0  0  0  0  0  0
   14.6766  -97.6063    0.0000 C   0  0  0  0  0  0  0  0  0  0  0  0
   13.8105  -96.1063    0.0000 O   0  0  0  0  0  0  0  0  0  0  0  0
   13.8105  -98.1063    0.0000 C   0  0  0  0  0  0  0  0  0  0  0  0
   12.9445  -96.6063    0.0000 C   0  0  0  0  0  0  0  0  0  0  0  0
   12.9445  -97.6063    0.0000 C   0  0  0  0  0  0  0  0  0  0  0  0
   15.5426  -96.1063    0.0000 O   0  0  0  0  0  0  0  0  0  0  0  0
   15.5426  -98.1063    0.0000 N   0  0  0  0  0  0  0  0  0  0  0  0
   12.0784  -98.1063    0.0000 O   0  0  0  0  0  0  0  0  0  0  0  0
   12.0784  -96.1063    0.0000 C   0  0  0  0  0  0  0  0  0  0  0  0
   12.0784  -95.1063    0.0000 O   0  0  0  0  0  0  0  0  0  0  0  0
   11.2124  -97.6063    0.0000 C   0  0  0  0  0  0  0  0  0  0  0  0
   10.3463  -98.1065    0.0000 C   0  0  0  0  0  0  0  0  0  0  0  0
   11.2123  -96.6065    0.0000 O   0  0  0  0  0  0  0  0  0  0  0  0
    9.4803  -97.6065    0.0000 C   0  0  0  0  0  0  0  0  0  0  0  0
   10.3464  -96.1066    0.0000 C   0  0  0  0  0  0  0  0  0  0  0  0
    9.4803  -96.6067    0.0000 C   0  0  0  0  0  0  0  0  0  0  0  0
   10.3463  -99.1065    0.0000 O   0  0  0  0  0  0  0  0  0  0  0  0
    8.6144  -98.1066    0.0000 O   0  0  0  0  0  0  0  0  0  0  0  0
    8.6143  -96.1067    0.0000 O   0  0  0  0  0  0  0  0  0  0  0  0
   10.3463  -95.1066    0.0000 C   0  0  0  0  0  0  0  0  0  0  0  0
   11.8103 -102.5704    0.0000 O   0  0  0  0  0  0  0  0  0  0  0  0
   13.3104  -99.9724    0.0000 C   0  0  0  0  0  0  0  0  0  0  0  0
   13.8104 -100.8385    0.0000 C   0  0  0  0  0  0  0  0  0  0  0  0
   12.3104  -99.9724    0.0000 O   0  0  0  0  0  0  0  0  0  0  0  0
   13.3103 -101.7045    0.0000 C   0  0  0  0  0  0  0  0  0  0  0  0
   11.8104 -100.8384    0.0000 C   0  0  0  0  0  0  0  0  0  0  0  0
   12.3103 -101.7044    0.0000 C   0  0  0  0  0  0  0  0  0  0  0  0
   14.8104 -100.8385    0.0000 O   0  0  0  0  0  0  0  0  0  0  0  0
   13.8102 -102.5705    0.0000 O   0  0  0  0  0  0  0  0  0  0  0  0
   10.8104 -100.8384    0.0000 C   0  0  0  0  0  0  0  0  0  0  0  0
   10.3103 -101.7044    0.0000 O   0  0  0  0  0  0  0  0  0  0  0  0
   15.5425  -99.1063    0.0000 C   0  0  0  0  0  0  0  0  0  0  0  0
   16.4085  -99.6064    0.0000 C   0  0  0  0  0  0  0  0  0  0  0  0
   14.6765  -99.6063    0.0000 O   0  0  0  0  0  0  0  0  0  0  0  0
   16.4086  -96.6063    0.0000 C   0  0  0  0  0  0  0  0  0  0  0  0
   17.2746  -96.1063    0.0000 C   0  0  0  0  0  0  0  0  0  0  0  0
   18.1407  -96.6063    0.0000 C   0  0  0  0  0  0  0  0  0  0  0  0
   19.0067  -96.1063    0.0000 C   0  0  0  0  0  0  0  0  0  0  0  0
   19.8727  -96.6063    0.0000 C   0  0  0  0  0  0  0  0  0  0  0  0
   20.7388  -96.1063    0.0000 N   0  0  0  0  0  0  0  0  0  0  0  0
  2  3  1  0     0  0
  2  4  1  0     0  0
  3  5  1  0     0  0
  4  6  1  0     0  0
  5  7  1  0     0  0
  6  7  1  0     0  0
  2  8  1  1     0  0
  3  9  1  6     0  0
  5  1  1  1     0  0
  7 10  1  1     0  0
  6 11  1  1     0  0
 11 12  1  0     0  0
 13 14  1  0     0  0
 13 15  1  0     0  0
 14 16  1  0     0  0
 15 17  1  0     0  0
 16 18  1  0     0  0
 17 18  1  0     0  0
 13 10  1  1     0  0
 14 19  1  6     0  0
 16 20  1  6     0  0
 18 21  1  1     0  0
 17 22  1  6     0  0
 24 25  1  0     0  0
 24 26  1  0     0  0
 25 27  1  0     0  0
 26 28  1  0     0  0
 27 29  1  0     0  0
 28 29  1  0     0  0
 24  1  1  1     0  0
 25 30  1  6     0  0
 27 31  1  1     0  0
 29 23  1  6     0  0
 28 32  1  1     0  0
 33 32  1  0     0  0
 35 34  1  0     0  0
 36 34  2  0     0  0
  9 34  1  0     0  0
 37  8  1  0     0  0
 38 37  1  0     0  0
 39 38  1  0     0  0
 40 39  1  0     0  0
 41 40  1  0     0  0
 42 41  1  0     0  0
M  END
> <ID>
CHEBI:140512

> <NAME>
beta-D-Glcp-(1->3)-[alpha-L-Rhap-(1->4)]-beta-D-GalpNAcO[CH2]5NH2

> <DEFINITION>
A branched trisaccharide derivative consisting of a disaccharide unit of β-D-glucose and N-acetyl-β-D-galactosamine residues linked (1→3), to the N-acetylgalactosamine residue of which is also linked (1→4) an α-L-rhamnosyl residue, the whole linked glycosidically to a 5-aminopentyl group.

> <STAR>
3

> <SYNONYM>
Rhaalpha1-4(Glcbeta1-3)GalNAcO[CH2]5NH2; Glcbeta1-3(Rhaalpha1-4)GalNAcO[CH2]5NH2; beta-D-Glc-(1->3)-[alpha-L-Rha-(1->4)]-beta-D-GalNAcO[CH2]5NH2; alpha-L-Rha-(1->4)-[beta-D-Glc-(1->3)]-beta-D-GalNAcO[CH2]5NH2; 5-aminopentyl beta-D-glucosyl-(1->3)-[alpha-L-rhamnosyl-(1->4)]-N-acetyl-beta-D-galactosaminide; 5-aminopentyl alpha-L-rhamnosyl-(1->4)-[beta-D-glucosyl-(1->3)]-N-acetyl-beta-D-galactosaminide; 5-aminopentyl 6-deoxy-alpha-L-mannopyranosyl-(1->4)-[beta-D-glucopyranosyl-(1->3)]-2-acetamido-2-deoxy-beta-D-galactopyranoside

> <IUPAC_NAME>
5-aminopentyl beta-D-glucopyranosyl-(1->3)-[alpha-L-rhamnopyranosyl-(1->4)]-2-acetamido-2-deoxy-beta-D-galactopyranoside

> <FORMULA>
C25H46N2O15

> <MASS>
614.638

> <MONOISOTOPIC_MASS>
614.28982

> <CHARGE>
0

> <SMILES>
O([C@@H]1[C@H]([C@@H](O[C@@H]([C@@H]1O[C@H]2[C@@H]([C@@H]([C@H]([C@@H](O2)C)O)O)O)CO)OCCCCCN)NC(C)=O)[C@H]3[C@@H]([C@H]([C@@H]([C@H](O3)CO)O)O)O

> <INCHI>
InChI=1S/C25H46N2O15/c1-10-15(31)17(33)19(35)24(38-10)41-21-13(9-29)40-23(37-7-5-3-4-6-26)14(27-11(2)30)22(21)42-25-20(36)18(34)16(32)12(8-28)39-25/h10,12-25,28-29,31-36H,3-9,26H2,1-2H3,(H,27,30)/t10-,12+,13+,14+,15-,16+,17+,18-,19+,20+,21-,22+,23+,24-,25-/m0/s1

> <INCHIKEY>
IAXYECKVUWDSQO-YXHYTEQOSA-N

> <PUBMED_CITATION>
29333751

$$$$

Ketcher 04261814172D 1   1.00000     0.00000     0

 13 13  0     0  0            999 V2000
   10.5022  -13.6813    0.0000 C   0  0  0  0  0  0  0  0  0  0  0  0
   11.3117  -14.2683    0.0000 N   0  0  0  0  0  0  0  0  0  0  0  0
   10.8104  -12.7299    0.0000 C   0  0  0  0  0  0  0  0  0  0  0  0
   12.1202  -13.6798    0.0000 C   0  0  0  0  0  0  0  0  0  0  0  0
   11.8105  -12.7290    0.0000 N   0  0  0  0  0  0  0  0  0  0  0  0
    9.5514  -13.9911    0.0000 N   0  0  0  0  0  0  0  0  0  0  0  0
    9.3443  -14.9695    0.0000 O   0  0  0  0  0  0  0  0  0  0  0  0
    8.8077  -13.3227    0.0000 O   0  0  0  0  0  0  0  0  0  0  0  0
   13.0715  -13.9880    0.0000 C   0  0  0  0  0  0  0  0  0  0  0  0
   11.3126  -15.2683    0.0000 C   0  0  0  0  0  0  0  0  0  0  0  0
   12.1790  -15.7676    0.0000 C   0  0  0  0  0  0  0  0  0  0  0  0
   13.0447  -15.2667    0.0000 C   0  0  0  0  0  0  0  0  0  0  0  0
   12.1799  -16.7675    0.0000 O   0  0  0  0  0  0  0  0  0  0  0  0
  2  1  1  0     0  0
  3  1  2  0     0  0
  4  2  1  0     0  0
  5  3  1  0     0  0
  5  4  2  0     0  0
  7  6  1  0     0  0
  8  6  2  0     0  0
  1  6  1  0     0  0
  4  9  1  0     0  0
  2 10  1  0     0  0
 10 11  1  0     0  0
 11 12  1  0     0  0
 11 13  1  0     0  0
M  CHG  2   6   1   7  -1
M  END
> <ID>
CHEBI:140628

> <NAME>
secnidazole

> <DEFINITION>
A C-nitro compound that is 5-nitroimidazole in which the hydrogens at positions 1 and 2 are replaced by 2-hydroxypropyl and methyl groups, respectively.

> <STAR>
3

> <IUPAC_NAME>
1-(2-methyl-5-nitro-1H-imidazol-1-yl)propan-2-ol

> <INN>
secnidazolum; secnidazole; secnidazole; secnidazol

> <FORMULA>
C7H11N3O3

> <MASS>
185.181

> <MONOISOTOPIC_MASS>
185.08004

> <CHARGE>
0

> <SMILES>
C=1(N(C(=NC1)C)CC(C)O)[N+]([O-])=O

> <INCHI>
InChI=1S/C7H11N3O3/c1-5(11)4-9-6(2)8-3-7(9)10(12)13/h3,5,11H,4H2,1-2H3

> <INCHIKEY>
KPQZUUQMTUIKBP-UHFFFAOYSA-N

> <CAS_REGISTRY_NUMBER>
3366-95-8

> <REAXYS_REGISTRY_NUMBER>
612717

> <CHEMIDPLUS>
3366-95-8

> <KEGG_DRUG_ACCESSION>
D07353

> <LINCS_ACCESSION>
LSM-5131

> <WIKIPEDIA_ACCESSION>
Secnidazole

> <PUBMED_CITATION>
28337876; 28372197; 28697102; 28967984; 29323627; 29327947; 29635264; 29684664

$$$$

Ketcher 04301814192D 1   1.00000     0.00000     0

 22 22  0     0  0            999 V2000
   22.5889  -45.8975    0.0000 C   0  0  0  0  0  0  0  0  0  0  0  0
   22.5889  -46.8975    0.0000 C   0  0  0  0  0  0  0  0  0  0  0  0
   21.7228  -45.3975    0.0000 C   0  0  0  0  0  0  0  0  0  0  0  0
   21.7228  -47.3975    0.0000 C   0  0  0  0  0  0  0  0  0  0  0  0
   20.8568  -45.8975    0.0000 C   0  0  0  0  0  0  0  0  0  0  0  0
   20.8568  -46.8975    0.0000 C   0  0  0  0  0  0  0  0  0  0  0  0
   19.9908  -47.3975    0.0000 N   0  0  0  0  0  0  0  0  0  0  0  0
   19.1248  -46.8975    0.0000 O   0  0  0  0  0  0  0  0  0  0  0  0
   19.9907  -48.3975    0.0000 O   0  0  0  0  0  0  0  0  0  0  0  0
   23.4549  -45.3975    0.0000 C   0  0  0  0  0  0  0  0  0  0  0  0
   24.3209  -45.8975    0.0000 O   0  0  0  0  0  0  0  0  0  0  0  0
   25.1869  -45.3974    0.0000 P   0  0  0  0  0  0  0  0  0  0  0  0
   26.0530  -45.8974    0.0000 C   0  0  0  0  0  0  0  0  0  0  0  0
   25.1869  -44.3974    0.0000 O   0  0  0  0  0  0  0  0  0  0  0  0
   26.9190  -45.3974    0.0000 C   0  0  0  0  0  0  0  0  0  0  0  0
   24.3209  -44.8975    0.0000 O   0  0  0  0  0  0  0  0  0  0  0  0
   27.7851  -45.8974    0.0000 C   0  0  0  0  0  0  0  0  0  0  0  0
   28.6511  -45.3974    0.0000 C   0  0  0  0  0  0  0  0  0  0  0  0
   29.5171  -45.8974    0.0000 C   0  0  0  0  0  0  0  0  0  0  0  0
   30.3831  -45.3974    0.0000 C   0  0  0  0  0  0  0  0  0  0  0  0
   31.2491  -45.8974    0.0000 O   0  0  0  0  0  0  0  0  0  0  0  0
   30.3831  -44.3974    0.0000 O   0  0  0  0  0  0  0  0  0  0  0  0
  2  1  1  0     0  0
  3  1  2  0     0  0
  4  2  2  0     0  0
  5  3  1  0     0  0
  6  4  1  0     0  0
  6  5  2  0     0  0
  8  7  1  0     0  0
  9  7  2  0     0  0
  6  7  1  0     0  0
  1 10  1  0     0  0
 10 11  1  0     0  0
 11 12  1  0     0  0
 12 13  1  0     0  0
 12 14  2  0     0  0
 13 15  1  0     0  0
 12 16  1  0     0  0
 18 17  1  0     0  0
 19 18  1  0     0  0
 20 19  1  0     0  0
 21 20  1  0     0  0
 20 22  2  0     0  0
 17 15  1  0     0  0
M  CHG  2   7   1   8  -1
M  END
> <ID>
CHEBI:140643

> <NAME>
6-{hydroxy[(4-nitrobenzyl)oxy]phosphoryl}hexanoic acid

> <DEFINITION>
A C-nitro compound that is 6-phosphonohexanoic acid in which the phosphono function is esterified with (4-nitrophenyl)methanol; a phosphonate transition state analogue with affinity for catalytic antibody 7B9.

> <STAR>
3

> <SYNONYM>
6-[hydroxy[(4-nitrophenyl)methoxy]phosphinyl]hexanoic acid

> <IUPAC_NAME>
6-{hydroxy[(4-nitrobenzyl)oxy]phosphoryl}hexanoic acid

> <FORMULA>
C13H18NO7P

> <MASS>
331.259

> <MONOISOTOPIC_MASS>
331.08209

> <CHARGE>
0

> <SMILES>
C=1(C=CC(=CC1)[N+]([O-])=O)COP(CCCCCC(O)=O)(=O)O

> <INCHI>
InChI=1S/C13H18NO7P/c15-13(16)4-2-1-3-9-22(19,20)21-10-11-5-7-12(8-6-11)14(17)18/h5-8H,1-4,9-10H2,(H,15,16)(H,19,20)

> <INCHIKEY>
ARWNSSBHKYKVRY-UHFFFAOYSA-N

> <REAXYS_REGISTRY_NUMBER>
8639551

> <PUBMED_CITATION>
10839182; 29496413

$$$$

Ketcher 05211816202D 1   1.00000     0.00000     0

 48 52  0     1  0            999 V2000
   24.9417  -47.6267    0.0000 O   0  0  0  0  0  0  0  0  0  0  0  0
   24.1395  -48.2095    0.0000 C   0  0  0  0  0  0  0  0  0  0  0  0
   25.7436  -48.2095    0.0000 C   0  0  0  0  0  0  0  0  0  0  0  0
   26.6863  -47.9031    0.0000 O   0  0  0  0  0  0  0  0  0  0  0  0
   25.4372  -49.1522    0.0000 C   0  0  0  0  0  0  0  0  0  0  0  0
   26.0198  -49.9543    0.0000 O   0  0  0  0  0  0  0  0  0  0  0  0
   24.4458  -49.1522    0.0000 C   0  0  0  0  0  0  0  0  0  0  0  0
   23.8632  -49.9543    0.0000 O   0  0  0  0  0  0  0  0  0  0  0  0
   23.1968  -47.9032    0.0000 C   0  0  0  0  0  0  0  0  0  0  0  0
   22.4600  -48.5664    0.0000 O   0  0  0  0  0  0  0  0  0  0  0  0
   20.7751  -47.7050    0.0000 O   0  0  0  0  0  0  0  0  0  0  0  0
   19.9731  -48.2876    0.0000 C   0  0  0  0  0  0  0  0  0  0  0  0
   21.5769  -48.2876    0.0000 C   0  0  0  0  0  0  0  0  0  0  0  0
   21.2706  -49.2301    0.0000 C   0  0  0  0  0  0  0  0  0  0  0  0
   21.8532  -50.0324    0.0000 O   0  0  0  0  0  0  0  0  0  0  0  0
   20.2793  -49.2301    0.0000 C   0  0  0  0  0  0  0  0  0  0  0  0
   19.6967  -50.0324    0.0000 O   0  0  0  0  0  0  0  0  0  0  0  0
   19.0304  -47.9812    0.0000 C   0  0  0  0  0  0  0  0  0  0  0  0
   18.1719  -48.4769    0.0000 O   0  0  0  0  0  0  0  0  0  0  0  0
   16.5173  -47.5706    0.0000 O   0  0  0  0  0  0  0  0  0  0  0  0
   15.7154  -48.1531    0.0000 C   0  0  0  0  0  0  0  0  0  0  0  0
   17.3192  -48.1531    0.0000 C   0  0  0  0  0  0  0  0  0  0  0  0
   17.0129  -49.0958    0.0000 C   0  0  0  0  0  0  0  0  0  0  0  0
   17.5955  -50.3398    0.0000 O   0  0  0  0  0  0  0  0  0  0  0  0
   16.0216  -49.0958    0.0000 C   0  0  0  0  0  0  0  0  0  0  0  0
   15.4390  -49.8979    0.0000 O   0  0  0  0  0  0  0  0  0  0  0  0
   14.7725  -47.8469    0.0000 C   0  0  0  0  0  0  0  0  0  0  0  0
   14.0358  -48.5101    0.0000 O   0  0  0  0  0  0  0  0  0  0  0  0
   16.1202  -50.7583    0.0000 O   0  0  0  0  0  0  0  0  0  0  0  0
   15.3183  -51.3410    0.0000 C   0  0  0  0  0  0  0  0  0  0  0  0
   16.9221  -51.3410    0.0000 C   0  0  0  0  0  0  0  0  0  0  0  0
   16.6158  -52.2837    0.0000 C   0  0  0  0  0  0  0  0  0  0  0  0
   17.1984  -53.0857    0.0000 O   0  0  0  0  0  0  0  0  0  0  0  0
   15.6244  -52.2837    0.0000 C   0  0  0  0  0  0  0  0  0  0  0  0
   15.0419  -53.0857    0.0000 O   0  0  0  0  0  0  0  0  0  0  0  0
   14.3754  -51.0347    0.0000 C   0  0  0  0  0  0  0  0  0  0  0  0
   13.6387  -51.6980    0.0000 O   0  0  0  0  0  0  0  0  0  0  0  0
   12.7802  -52.1936    0.0000 C   0  0  0  0  0  0  0  0  0  0  0  0
   12.7802  -53.1849    0.0000 C   0  0  0  0  0  0  0  0  0  0  0  0
   11.9216  -51.6980    0.0000 O   0  0  0  0  0  0  0  0  0  0  0  0
   11.9216  -53.6806    0.0000 C   0  0  0  0  0  0  0  0  0  0  0  0
   11.0632  -52.1936    0.0000 C   0  0  0  0  0  0  0  0  0  0  0  0
   11.0632  -53.1849    0.0000 C   0  0  0  0  0  0  0  0  0  0  0  0
   13.6387  -53.6806    0.0000 O   0  0  0  0  0  0  0  0  0  0  0  0
   11.9216  -54.6719    0.0000 O   0  0  0  0  0  0  0  0  0  0  0  0
   10.2047  -53.6806    0.0000 O   0  0  0  0  0  0  0  0  0  0  0  0
   10.2047  -51.6980    0.0000 C   0  0  0  0  0  0  0  0  0  0  0  0
    9.3462  -52.1936    0.0000 O   0  0  0  0  0  0  0  0  0  0  0  0
  1  2  1  0     0  0
  1  3  1  0     0  0
  2  7  1  0     0  0
  2  9  1  1     0  0
  5  3  1  0     0  0
  3  4  1  0     0  0
  7  5  1  0     0  0
  5  6  1  1     0  0
  7  8  1  6     0  0
  9 10  1  0     0  0
 11 12  1  0     0  0
 11 13  1  0     0  0
 12 16  1  0     0  0
 14 13  1  0     0  0
 13 10  1  6     0  0
 16 14  1  0     0  0
 14 15  1  1     0  0
 16 17  1  6     0  0
 12 18  1  1     0  0
 20 21  1  0     0  0
 20 22  1  0     0  0
 21 25  1  0     0  0
 21 27  1  1     0  0
 23 22  1  0     0  0
 25 23  1  0     0  0
 23 24  1  1     0  0
 25 26  1  6     0  0
 27 28  1  0     0  0
 29 30  1  0     0  0
 29 31  1  0     0  0
 30 34  1  0     0  0
 30 36  1  1     0  0
 32 31  1  0     0  0
 31 24  1  1     0  0
 34 32  1  0     0  0
 32 33  1  1     0  0
 34 35  1  6     0  0
 36 37  1  0     0  0
 22 19  1  6     0  0
 18 19  1  0     0  0
 38 39  1  0     0  0
 38 40  1  0     0  0
 39 41  1  0     0  0
 40 42  1  0     0  0
 41 43  1  0     0  0
 42 43  1  0     0  0
 38 37  1  6     0  0
 39 44  1  1     0  0
 41 45  1  1     0  0
 43 46  1  6     0  0
 42 47  1  1     0  0
 48 47  1  0     0  0
M  END
> <ID>
CHEBI:140813

> <NAME>
alpha-D-Manp-(1->5)-beta-D-Araf-(1->2)-alpha-D-Araf-(1->5)-alpha-D-Araf-(1->5)-D-Araf

> <DEFINITION>
A pentasaccharide composed of a mannopyranose and four arabinofuranose residues in an α(1→5), β(1→2), α(1→5) and α(1→5) linear sequence.

> <STAR>
3

> <SYNONYM>
alpha-D-mannosyl-(1->5)-beta-D-arabinosyl-(1->2)-alpha-D-arabinosyl-(1->5)-alpha-D-arabinosyl-(1->5)-D-arabinose; alpha-D-Man-(1->5)-beta-D-Ara-(1->2)-alpha-D-Ara-(1->5)-alpha-D-Ara-(1->5)-D-Ara

> <IUPAC_NAME>
alpha-D-mannopyranosyl-(1->5)-beta-D-arabinofuranosyl-(1->2)-alpha-D-arabinofuranosyl-(1->5)-alpha-D-arabinofuranosyl-(1->5)-D-arabinofuranose

> <FORMULA>
C26H44O22

> <MASS>
708.615

> <MONOISOTOPIC_MASS>
708.23242

> <CHARGE>
0

> <SMILES>
O1[C@@H]([C@H]([C@@H](C1O)O)O)CO[C@H]2O[C@@H]([C@H]([C@@H]2O)O)CO[C@H]3O[C@@H]([C@H]([C@@H]3O[C@@H]4O[C@@H]([C@H]([C@@H]4O)O)CO[C@@H]5[C@H]([C@H]([C@@H]([C@H](O5)CO)O)O)O)O)CO

> <INCHI>
InChI=1S/C26H44O22/c27-1-6-11(29)16(34)20(38)24(44-6)41-4-10-14(32)19(37)25(47-10)48-21-15(33)7(2-28)45-26(21)42-5-9-13(31)18(36)23(46-9)40-3-8-12(30)17(35)22(39)43-8/h6-39H,1-5H2/t6-,7-,8-,9-,10-,11-,12-,13-,14-,15-,16+,17+,18+,19+,20+,21+,22?,23+,24+,25+,26+/m1/s1

> <INCHIKEY>
LMJQTZBTENPKCS-VCHCRXIRSA-N

> <PUBMED_CITATION>
29610143

$$$$

Ketcher 05241809552D 1   1.00000     0.00000     0

 45 48  0     1  0            999 V2000
   19.5038  -32.7951    0.0000 C   0  0  0  0  0  0  0  0  0  0  0  0
   19.5038  -33.7951    0.0000 C   0  0  0  0  0  0  0  0  0  0  0  0
   18.6377  -32.2951    0.0000 O   0  0  0  0  0  0  0  0  0  0  0  0
   18.6377  -34.2951    0.0000 C   0  0  0  0  0  0  0  0  0  0  0  0
   17.7717  -32.7951    0.0000 C   0  0  0  0  0  0  0  0  0  0  0  0
   17.7717  -33.7951    0.0000 C   0  0  0  0  0  0  0  0  0  0  0  0
   20.3698  -32.2951    0.0000 O   0  0  0  0  0  0  0  0  0  0  0  0
   20.3698  -34.2951    0.0000 O   0  0  0  0  0  0  0  0  0  0  0  0
   18.6377  -35.2951    0.0000 O   0  0  0  0  0  0  0  0  0  0  0  0
   16.9057  -34.2951    0.0000 O   0  0  0  0  0  0  0  0  0  0  0  0
   16.9057  -32.2951    0.0000 C   0  0  0  0  0  0  0  0  0  0  0  0
   16.0397  -32.7951    0.0000 O   0  0  0  0  0  0  0  0  0  0  0  0
   15.1737  -33.2951    0.0000 C   0  0  0  0  0  0  0  0  0  0  0  0
   15.1737  -34.2951    0.0000 C   0  0  0  0  0  0  0  0  0  0  0  0
   14.3076  -32.7951    0.0000 O   0  0  0  0  0  0  0  0  0  0  0  0
   14.3076  -34.7951    0.0000 C   0  0  0  0  0  0  0  0  0  0  0  0
   13.4416  -33.2951    0.0000 C   0  0  0  0  0  0  0  0  0  0  0  0
   13.4416  -34.2951    0.0000 C   0  0  0  0  0  0  0  0  0  0  0  0
   16.0397  -34.7951    0.0000 O   0  0  0  0  0  0  0  0  0  0  0  0
   14.3075  -35.7951    0.0000 O   0  0  0  0  0  0  0  0  0  0  0  0
   12.5756  -34.7951    0.0000 O   0  0  0  0  0  0  0  0  0  0  0  0
   12.5756  -32.7951    0.0000 C   0  0  0  0  0  0  0  0  0  0  0  0
   11.7096  -33.2951    0.0000 O   0  0  0  0  0  0  0  0  0  0  0  0
   10.8436  -33.7951    0.0000 C   0  0  0  0  0  0  0  0  0  0  0  0
   10.8436  -34.7951    0.0000 C   0  0  0  0  0  0  0  0  0  0  0  0
    9.9775  -33.2951    0.0000 O   0  0  0  0  0  0  0  0  0  0  0  0
    9.9775  -35.2951    0.0000 C   0  0  0  0  0  0  0  0  0  0  0  0
    9.1115  -33.7951    0.0000 C   0  0  0  0  0  0  0  0  0  0  0  0
    9.1115  -34.7951    0.0000 C   0  0  0  0  0  0  0  0  0  0  0  0
   11.7096  -35.2951    0.0000 O   0  0  0  0  0  0  0  0  0  0  0  0
    9.9774  -36.2951    0.0000 O   0  0  0  0  0  0  0  0  0  0  0  0
    8.2455  -35.2951    0.0000 O   0  0  0  0  0  0  0  0  0  0  0  0
    8.2455  -33.2951    0.0000 C   0  0  0  0  0  0  0  0  0  0  0  0
    7.3794  -33.7951    0.0000 O   0  0  0  0  0  0  0  0  0  0  0  0
   13.8075  -36.6611    0.0000 C   0  0  0  0  0  0  0  0  0  0  0  0
   14.3075  -37.5272    0.0000 C   0  0  0  0  0  0  0  0  0  0  0  0
   12.8075  -36.6611    0.0000 O   0  0  0  0  0  0  0  0  0  0  0  0
   13.8075  -38.3932    0.0000 C   0  0  0  0  0  0  0  0  0  0  0  0
   12.3075  -37.5271    0.0000 C   0  0  0  0  0  0  0  0  0  0  0  0
   12.8075  -38.3931    0.0000 C   0  0  0  0  0  0  0  0  0  0  0  0
   15.3075  -37.5272    0.0000 O   0  0  0  0  0  0  0  0  0  0  0  0
   14.3074  -39.2592    0.0000 O   0  0  0  0  0  0  0  0  0  0  0  0
   12.3075  -39.2591    0.0000 O   0  0  0  0  0  0  0  0  0  0  0  0
   11.3076  -37.5271    0.0000 C   0  0  0  0  0  0  0  0  0  0  0  0
   10.8075  -38.3931    0.0000 O   0  0  0  0  0  0  0  0  0  0  0  0
  1  2  1  0     0  0
  1  3  1  0     0  0
  2  4  1  0     0  0
  3  5  1  0     0  0
  4  6  1  0     0  0
  5  6  1  0     0  0
  1  7  1  0     0  0
  2  8  1  1     0  0
  4  9  1  1     0  0
  6 10  1  6     0  0
  5 11  1  1     0  0
 12 11  1  0     0  0
 13 14  1  0     0  0
 13 15  1  0     0  0
 14 16  1  0     0  0
 15 17  1  0     0  0
 16 18  1  0     0  0
 17 18  1  0     0  0
 13 12  1  6     0  0
 14 19  1  1     0  0
 16 20  1  1     0  0
 18 21  1  6     0  0
 17 22  1  1     0  0
 23 22  1  0     0  0
 24 25  1  0     0  0
 24 26  1  0     0  0
 25 27  1  0     0  0
 26 28  1  0     0  0
 27 29  1  0     0  0
 28 29  1  0     0  0
 24 23  1  6     0  0
 25 30  1  1     0  0
 27 31  1  1     0  0
 29 32  1  6     0  0
 28 33  1  1     0  0
 34 33  1  0     0  0
 35 36  1  0     0  0
 35 37  1  0     0  0
 36 38  1  0     0  0
 37 39  1  0     0  0
 38 40  1  0     0  0
 39 40  1  0     0  0
 35 20  1  6     0  0
 36 41  1  1     0  0
 38 42  1  1     0  0
 40 43  1  6     0  0
 39 44  1  1     0  0
 45 44  1  0     0  0
M  END
> <ID>
CHEBI:140841

> <NAME>
alpha-D-Manp-(1->3)-[alpha-D-Manp-(1->6)]-alpha-D-Manp-(1->6)-D-Manp

> <DEFINITION>
A mannotetraose comprised of a trisaccharide unit of D-mannose residues linked sequentially α(1→3) and α(1→6), to the residue proximal to that at the reducing end is also linked α(1→6) a fourth D-mannose residue.

> <STAR>
3

> <SYNONYM>
Manalpha1-6(Manalpha1-3)Manalpha1-6Man; Manalpha1-3(Manalpha1-6)Manalpha1-6Man; alpha-D-Manp-(1->6)-[alpha-D-Manp-(1->3)]-alpha-D-Manp-(1->6)-D-Manp; alpha-D-mannosyl-(1->6)-[alpha-D-mannosyl-(1->3)]-alpha-D-mannosyl-(1->6)-D-mannose; alpha-D-mannosyl-(1->3)-[alpha-D-mannosyl-(1->6)]-alpha-D-mannosyl-(1->6)-D-mannose; alpha-D-mannopyranosyl-(1->6)-[alpha-D-mannopyranosyl-(1->3)]-alpha-D-mannopyranosyl-(1->6)-D-mannopyranose; alpha-D-Man-(1->6)-[alpha-D-Man-(1->3)]-alpha-D-Man-(1->6)-D-Man; alpha-D-Man-(1->3)-[alpha-D-Man-(1->6)]-alpha-D-Man-(1->6)-D-Man

> <IUPAC_NAME>
alpha-D-mannopyranosyl-(1->3)-[alpha-D-mannopyranosyl-(1->6)]-alpha-D-mannopyranosyl-(1->6)-D-mannopyranose

> <FORMULA>
C24H42O21

> <MASS>
666.579

> <MONOISOTOPIC_MASS>
666.22186

> <CHARGE>
0

> <SMILES>
C1([C@H]([C@H]([C@@H]([C@H](O1)CO[C@@H]2[C@H]([C@H]([C@@H]([C@H](O2)CO[C@@H]3[C@H]([C@H]([C@@H]([C@H](O3)CO)O)O)O)O)O[C@@H]4[C@H]([C@H]([C@@H]([C@H](O4)CO)O)O)O)O)O)O)O)O

> <INCHI>
InChI=1S/C24H42O21/c25-1-5-9(27)14(32)17(35)22(42-5)39-4-8-12(30)20(45-24-18(36)15(33)10(28)6(2-26)43-24)19(37)23(44-8)40-3-7-11(29)13(31)16(34)21(38)41-7/h5-38H,1-4H2/t5-,6-,7-,8-,9-,10-,11-,12-,13+,14+,15+,16+,17+,18+,19+,20+,21?,22+,23+,24-/m1/s1

> <INCHIKEY>
WCXCBGYBSHHMGJ-NKMBCZLOSA-N

> <PUBMED_CITATION>
29610143

$$$$

Ketcher 05241810162D 1   1.00000     0.00000     0

 45 48  0     1  0            999 V2000
   18.8653  -45.5300    0.0000 C   0  0  0  0  0  0  0  0  0  0  0  0
   18.8653  -46.5300    0.0000 C   0  0  0  0  0  0  0  0  0  0  0  0
   17.9992  -45.0300    0.0000 O   0  0  0  0  0  0  0  0  0  0  0  0
   17.9992  -47.0300    0.0000 C   0  0  0  0  0  0  0  0  0  0  0  0
   17.1332  -45.5300    0.0000 C   0  0  0  0  0  0  0  0  0  0  0  0
   17.1332  -46.5300    0.0000 C   0  0  0  0  0  0  0  0  0  0  0  0
   19.7313  -45.0300    0.0000 O   0  0  0  0  0  0  0  0  0  0  0  0
   19.7313  -47.0300    0.0000 O   0  0  0  0  0  0  0  0  0  0  0  0
   17.9992  -48.0300    0.0000 O   0  0  0  0  0  0  0  0  0  0  0  0
   16.2672  -47.0300    0.0000 O   0  0  0  0  0  0  0  0  0  0  0  0
   16.2672  -45.0300    0.0000 C   0  0  0  0  0  0  0  0  0  0  0  0
   15.4012  -45.5300    0.0000 O   0  0  0  0  0  0  0  0  0  0  0  0
   14.5352  -46.0300    0.0000 C   0  0  0  0  0  0  0  0  0  0  0  0
   14.5352  -47.0300    0.0000 C   0  0  0  0  0  0  0  0  0  0  0  0
   13.6691  -45.5300    0.0000 O   0  0  0  0  0  0  0  0  0  0  0  0
   13.6691  -47.5300    0.0000 C   0  0  0  0  0  0  0  0  0  0  0  0
   12.8031  -46.0300    0.0000 C   0  0  0  0  0  0  0  0  0  0  0  0
   12.8031  -47.0300    0.0000 C   0  0  0  0  0  0  0  0  0  0  0  0
   15.4012  -47.5300    0.0000 O   0  0  0  0  0  0  0  0  0  0  0  0
   13.6691  -48.5300    0.0000 O   0  0  0  0  0  0  0  0  0  0  0  0
   11.9370  -47.5300    0.0000 O   0  0  0  0  0  0  0  0  0  0  0  0
   11.9370  -45.5300    0.0000 C   0  0  0  0  0  0  0  0  0  0  0  0
   11.0710  -46.0300    0.0000 O   0  0  0  0  0  0  0  0  0  0  0  0
   10.2050  -46.5300    0.0000 C   0  0  0  0  0  0  0  0  0  0  0  0
   10.2050  -47.5300    0.0000 C   0  0  0  0  0  0  0  0  0  0  0  0
    9.3389  -46.0300    0.0000 O   0  0  0  0  0  0  0  0  0  0  0  0
    9.3389  -48.0300    0.0000 C   0  0  0  0  0  0  0  0  0  0  0  0
    8.4729  -46.5300    0.0000 C   0  0  0  0  0  0  0  0  0  0  0  0
    8.4729  -47.5300    0.0000 C   0  0  0  0  0  0  0  0  0  0  0  0
   11.0710  -48.0300    0.0000 O   0  0  0  0  0  0  0  0  0  0  0  0
    9.3389  -49.0300    0.0000 O   0  0  0  0  0  0  0  0  0  0  0  0
    7.6069  -48.0300    0.0000 O   0  0  0  0  0  0  0  0  0  0  0  0
    7.6069  -46.0300    0.0000 C   0  0  0  0  0  0  0  0  0  0  0  0
    6.7409  -46.5300    0.0000 O   0  0  0  0  0  0  0  0  0  0  0  0
   15.4012  -48.5300    0.0000 C   0  0  0  0  0  0  0  0  0  0  0  0
   16.2672  -49.0300    0.0000 C   0  0  0  0  0  0  0  0  0  0  0  0
   14.5351  -49.0301    0.0000 O   0  0  0  0  0  0  0  0  0  0  0  0
   16.2671  -50.0301    0.0000 C   0  0  0  0  0  0  0  0  0  0  0  0
   14.5351  -50.0300    0.0000 C   0  0  0  0  0  0  0  0  0  0  0  0
   15.4011  -50.5300    0.0000 C   0  0  0  0  0  0  0  0  0  0  0  0
   17.1332  -48.5301    0.0000 O   0  0  0  0  0  0  0  0  0  0  0  0
   17.1331  -50.5301    0.0000 O   0  0  0  0  0  0  0  0  0  0  0  0
   15.4011  -51.5300    0.0000 O   0  0  0  0  0  0  0  0  0  0  0  0
   13.6691  -50.5300    0.0000 C   0  0  0  0  0  0  0  0  0  0  0  0
   13.6691  -51.5300    0.0000 O   0  0  0  0  0  0  0  0  0  0  0  0
  1  2  1  0     0  0
  1  3  1  0     0  0
  2  4  1  0     0  0
  3  5  1  0     0  0
  4  6  1  0     0  0
  5  6  1  0     0  0
  1  7  1  0     0  0
  2  8  1  1     0  0
  4  9  1  1     0  0
  6 10  1  6     0  0
  5 11  1  1     0  0
 12 11  1  0     0  0
 13 14  1  0     0  0
 13 15  1  0     0  0
 14 16  1  0     0  0
 15 17  1  0     0  0
 16 18  1  0     0  0
 17 18  1  0     0  0
 13 12  1  6     0  0
 14 19  1  1     0  0
 16 20  1  1     0  0
 18 21  1  6     0  0
 17 22  1  1     0  0
 23 22  1  0     0  0
 24 25  1  0     0  0
 24 26  1  0     0  0
 25 27  1  0     0  0
 26 28  1  0     0  0
 27 29  1  0     0  0
 28 29  1  0     0  0
 24 23  1  6     0  0
 25 30  1  1     0  0
 27 31  1  1     0  0
 29 32  1  6     0  0
 28 33  1  1     0  0
 34 33  1  0     0  0
 35 36  1  0     0  0
 35 37  1  0     0  0
 36 38  1  0     0  0
 37 39  1  0     0  0
 38 40  1  0     0  0
 39 40  1  0     0  0
 35 19  1  6     0  0
 36 41  1  1     0  0
 38 42  1  1     0  0
 40 43  1  6     0  0
 39 44  1  1     0  0
 45 44  1  0     0  0
M  END
> <ID>
CHEBI:140842

> <NAME>
alpha-D-Manp-(1->2)-[alpha-D-Manp-(1->6)]-alpha-D-Manp-(1->6)-D-Manp

> <DEFINITION>
A mannotetraose comprised of a trisaccharide unit of D-mannose residues linked sequentially α(1→2) and α(1→6), while to the residue proximal to that at the reducing end is linked α(1→6) the fourth D-mannose residue.

> <STAR>
3

> <SYNONYM>
WURCS=2.0/2,4,3/[a1122h-1x_1-5][a1122h-1a_1-5]/1-2-2-2/a6-b1_b2-c1_b6-d1; Manalpha1-6(Manalpha1-2)Manalpha1-6Man; Manalpha1-2(Manalpha1-6)Manalpha1-6Man; alpha-D-Manp-(1->6)-[alpha-D-Manp-(1->2)]-alpha-D-Manp-(1->6)-D-Manp; alpha-D-mannosyl-(1->6)-[alpha-D-mannosyl-(1->2)]-alpha-D-mannosyl-(1->6)-D-mannose; alpha-D-mannosyl-(1->2)-[alpha-D-mannosyl-(1->6)]-alpha-D-mannosyl-(1->6)-D-mannose; alpha-D-mannopyranosyl-(1->6)-[alpha-D-mannopyranosyl-(1->2)]-alpha-D-mannopyranosyl-(1->6)-D-mannopyranose; alpha-D-manno-hexopyranosyl-(1->2)-[alpha-D-manno-hexopyranosyl-(1->6)]-alpha-D-manno-hexopyranosyl-(1->6)-D-manno-hexopyranose; alpha-D-Man-(1->6)-[alpha-D-Man-(1->2)]-alpha-D-Man-(1->6)-D-Man; alpha-D-Man-(1->2)-[alpha-D-Man-(1->6)]-alpha-D-Man-(1->6)-D-Man

> <IUPAC_NAME>
alpha-D-mannopyranosyl-(1->2)-[alpha-D-mannopyranosyl-(1->6)]-alpha-D-mannopyranosyl-(1->6)-D-mannopyranose

> <FORMULA>
C24H42O21

> <MASS>
666.579

> <MONOISOTOPIC_MASS>
666.22186

> <CHARGE>
0

> <SMILES>
C1([C@H]([C@H]([C@@H]([C@H](O1)CO[C@@H]2[C@H]([C@H]([C@@H]([C@H](O2)CO[C@@H]3[C@H]([C@H]([C@@H]([C@H](O3)CO)O)O)O)O)O)O[C@@H]4[C@H]([C@H]([C@@H]([C@H](O4)CO)O)O)O)O)O)O)O

> <INCHI>
InChI=1S/C24H42O21/c25-1-5-9(27)14(32)18(36)22(42-5)39-4-8-12(30)16(34)20(45-23-19(37)15(33)10(28)6(2-26)43-23)24(44-8)40-3-7-11(29)13(31)17(35)21(38)41-7/h5-38H,1-4H2/t5-,6-,7-,8-,9-,10-,11-,12-,13+,14+,15+,16+,17+,18+,19+,20+,21?,22+,23-,24+/m1/s1

> <INCHIKEY>
BYZCIBHELQLXSY-FSSALSTQSA-N

> <KEGG_GLYCAN_ACCESSION>
G03310

> <PUBMED_CITATION>
29610143

$$$$

Ketcher 07111816412D 1   1.00000     0.00000     0

 36 38  0     1  0            999 V2000
   10.5543  -10.2003    0.0000 C   0  0  0  0  0  0  0  0  0  0  0  0
   10.5543  -11.2003    0.0000 C   0  0  0  0  0  0  0  0  0  0  0  0
   11.4204  -11.7004    0.0000 C   0  0  0  0  0  0  0  0  0  0  0  0
   12.2864  -11.2004    0.0000 C   0  0  0  0  0  0  0  0  0  0  0  0
   12.2865  -10.2004    0.0000 C   0  0  0  0  0  0  0  0  0  0  0  0
   11.4204   -9.7003    0.0000 C   0  0  0  0  0  0  0  0  0  0  0  0
   11.4204   -8.7004    0.0000 C   0  0  0  0  0  0  0  0  0  0  0  0
   11.4205   -6.7003    0.0000 O   0  0  0  0  0  0  0  0  0  0  0  0
   12.2865   -7.2004    0.0000 C   0  0  0  0  0  0  0  0  0  0  0  0
   13.1525   -6.7005    0.0000 O   0  0  0  0  0  0  0  0  0  0  0  0
   12.2864   -8.2004    0.0000 C   0  0  0  0  0  0  0  0  0  0  0  0
   13.1524   -8.7004    0.0000 N   0  0  0  0  0  0  0  0  0  0  0  0
   14.0184   -7.2005    0.0000 O   0  0  0  0  0  0  0  0  0  0  0  0
   14.0184   -8.2004    0.0000 C   0  0  0  0  0  0  0  0  0  0  0  0
   14.8844   -8.7005    0.0000 C   0  0  0  0  0  0  0  0  0  0  0  0
   14.8845   -9.7006    0.0000 C   0  0  0  0  0  0  0  0  0  0  0  0
   15.7505   -8.2007    0.0000 C   0  0  0  0  0  0  0  0  0  0  0  0
   16.6165   -8.7007    0.0000 C   0  0  0  0  0  0  0  0  0  0  0  0
   16.6165   -9.7006    0.0000 C   0  0  0  0  0  0  0  0  0  0  0  0
   17.4825  -10.2006    0.0000 C   0  0  0  0  0  0  0  0  0  0  0  0
   17.4826   -8.2007    0.0000 C   0  0  0  0  0  0  0  0  0  0  0  0
   17.4826   -7.2007    0.0000 O   0  0  0  0  0  0  0  0  0  0  0  0
   18.3486   -8.7008    0.0000 O   0  0  0  0  0  0  0  0  0  0  0  0
   15.7505  -10.2006    0.0000 C   0  0  0  0  0  0  0  0  0  0  0  0
   15.7504  -11.2006    0.0000 Cl  0  0  0  0  0  0  0  0  0  0  0  0
   18.3485   -9.7008    0.0000 C   0  0  0  0  0  0  0  0  0  0  0  0
   19.2145  -10.2008    0.0000 C   0  0  0  0  0  0  0  0  0  0  0  0
   15.7506   -7.2007    0.0000 O   0  0  0  0  0  0  0  0  0  0  0  0
   11.4203  -12.7004    0.0000 C   0  0  0  0  0  0  0  0  0  0  0  0
   12.2863  -13.2005    0.0000 C   0  0  0  0  0  0  0  0  0  0  0  0
   12.2862  -14.2005    0.0000 C   0  0  0  0  0  0  0  0  0  0  0  0
   13.1523  -14.7005    0.0000 C   0  0  0  0  0  0  0  0  0  0  0  0
   13.1523  -15.7005    0.0000 C   0  0  0  0  0  0  0  0  0  0  0  0
   14.0182  -16.2006    0.0000 C   0  0  0  0  0  0  0  0  0  0  0  0
   14.0182  -17.2006    0.0000 O   0  0  0  0  0  0  0  0  0  0  0  0
   14.8843  -15.7007    0.0000 O   0  0  0  0  0  0  0  0  0  0  0  0
  1  2  2  0     0  0
  1  6  1  0     0  0
  2  3  1  0     0  0
  3  4  2  0     0  0
  4  5  1  0     0  0
  5  6  2  0     0  0
  6  7  1  0     0  0
  7 11  1  0     0  0
 11  9  1  0     0  0
  9  8  2  0     0  0
  9 10  1  0     0  0
 11 12  1  1     0  0
 12 14  1  0     0  0
 14 13  2  0     0  0
 14 15  1  0     0  0
 15 16  2  0     0  0
 15 17  1  0     0  0
 16 24  1  0     0  0
 24 19  2  0     0  0
 18 17  2  0     0  0
 18 21  1  0     0  0
 18 19  1  0     0  0
 19 20  1  0     0  0
 20 26  1  0     0  0
 26 23  1  0     0  0
 23 21  1  0     0  0
 21 22  2  0     0  0
 24 25  1  0     0  0
 26 27  1  0     0  0
 17 28  1  0     0  0
  3 29  1  0     0  0
 29 30  1  0     0  0
 30 31  1  0     0  0
 31 32  1  0     0  0
 32 33  1  0     0  0
 33 34  1  0     0  0
 34 35  2  0     0  0
 34 36  1  0     0  0
M  END
> <ID>
CHEBI:141300

> <NAME>
hapten OTAb

> <DEFINITION>
A synthetic phenylalanine derivative derived formally from the mycotoxin ochratoxin A by substitution at position 4 of the phenyl ring with a 5-carboxypentyl group.

> <STAR>
3

> <SYNONYM>
6-{4-[(2S)-2-carboxy-2-{[(5-chloro-8-hydroxy-3-methyl-1-oxo-3,4-dihydro-1H-isochromen-7-yl)carbonyl]amino}ethyl]phenyl}hexanoic acid; 4-(5-carboxypentyl)-N-[(5-chloro-3,4-dihydro-8-hydroxy-3-methyl-1-oxo-1H-2-benzopyran-7-yl)carbonyl]-L-phenylalanine

> <IUPAC_NAME>
6-(4-{(2S)-2-carboxy-2-[(5-chloro-8-hydroxy-3-methyl-1-oxo-3,4-dihydro-1H-2-benzopyran-7-carbonyl)amino]ethyl}phenyl)hexanoic acid

> <FORMULA>
C26H28ClNO8

> <MASS>
517.956

> <MONOISOTOPIC_MASS>
517.15034

> <CHARGE>
0

> <SMILES>
C1=CC(=CC=C1C[C@@H](C(=O)O)NC(=O)C2=CC(=C3C(=C2O)C(OC(C3)C)=O)Cl)CCCCCC(=O)O

> <INCHI>
InChI=1S/C26H28ClNO8/c1-14-11-17-19(27)13-18(23(31)22(17)26(35)36-14)24(32)28-20(25(33)34)12-16-9-7-15(8-10-16)5-3-2-4-6-21(29)30/h7-10,13-14,20,31H,2-6,11-12H2,1H3,(H,28,32)(H,29,30)(H,33,34)/t14?,20-/m0/s1

> <INCHIKEY>
JQANLPZXPZFWFL-LGTGAQBVSA-N

> <PUBMED_CITATION>
29950703

$$$$

Ketcher 07111818242D 1   1.00000     0.00000     0

 34 36  0     1  0            999 V2000
   32.6870  -10.2846    0.0000 C   0  0  0  0  0  0  0  0  0  0  0  0
   32.6869  -11.2846    0.0000 C   0  0  0  0  0  0  0  0  0  0  0  0
   33.5530  -11.7847    0.0000 C   0  0  0  0  0  0  0  0  0  0  0  0
   34.4191  -11.2846    0.0000 C   0  0  0  0  0  0  0  0  0  0  0  0
   34.4191  -10.2846    0.0000 C   0  0  0  0  0  0  0  0  0  0  0  0
   33.5531   -9.7846    0.0000 C   0  0  0  0  0  0  0  0  0  0  0  0
   33.5531   -8.7847    0.0000 C   0  0  0  0  0  0  0  0  0  0  0  0
   33.5532   -6.7847    0.0000 O   0  0  0  0  0  0  0  0  0  0  0  0
   34.4192   -7.2847    0.0000 C   0  0  0  0  0  0  0  0  0  0  0  0
   35.2852   -6.7848    0.0000 O   0  0  0  0  0  0  0  0  0  0  0  0
   34.4191   -8.2847    0.0000 C   0  0  0  0  0  0  0  0  0  0  0  0
   35.2851   -8.7847    0.0000 N   0  0  0  0  0  0  0  0  0  0  0  0
   36.1512   -7.2848    0.0000 O   0  0  0  0  0  0  0  0  0  0  0  0
   36.1512   -8.2847    0.0000 C   0  0  0  0  0  0  0  0  0  0  0  0
   37.0171   -8.7848    0.0000 C   0  0  0  0  0  0  0  0  0  0  0  0
   37.0172   -9.7849    0.0000 C   0  0  0  0  0  0  0  0  0  0  0  0
   37.8832   -8.2849    0.0000 C   0  0  0  0  0  0  0  0  0  0  0  0
   38.7493   -8.7850    0.0000 C   0  0  0  0  0  0  0  0  0  0  0  0
   38.7493   -9.7849    0.0000 C   0  0  0  0  0  0  0  0  0  0  0  0
   39.6152  -10.2849    0.0000 C   0  0  0  0  0  0  0  0  0  0  0  0
   39.6153   -8.2850    0.0000 C   0  0  0  0  0  0  0  0  0  0  0  0
   39.6154   -7.2850    0.0000 O   0  0  0  0  0  0  0  0  0  0  0  0
   40.4812   -8.7850    0.0000 O   0  0  0  0  0  0  0  0  0  0  0  0
   37.8832  -10.2849    0.0000 C   0  0  0  0  0  0  0  0  0  0  0  0
   37.8831  -11.2849    0.0000 Cl  0  0  0  0  0  0  0  0  0  0  0  0
   40.4812   -9.7850    0.0000 C   0  0  0  0  0  0  0  0  0  0  0  0
   41.3472  -10.2851    0.0000 C   0  0  0  0  0  0  0  0  0  0  0  0
   37.8833   -7.2849    0.0000 O   0  0  0  0  0  0  0  0  0  0  0  0
   42.2132   -9.7851    0.0000 C   0  0  0  0  0  0  0  0  0  0  0  0
   43.0792  -10.2852    0.0000 C   0  0  0  0  0  0  0  0  0  0  0  0
   43.9454   -9.7852    0.0000 C   0  0  0  0  0  0  0  0  0  0  0  0
   44.8113  -10.2852    0.0000 C   0  0  0  0  0  0  0  0  0  0  0  0
   45.6774   -9.7853    0.0000 O   0  0  0  0  0  0  0  0  0  0  0  0
   44.8112  -11.2853    0.0000 O   0  0  0  0  0  0  0  0  0  0  0  0
  1  2  2  0     0  0
  1  6  1  0     0  0
  2  3  1  0     0  0
  3  4  2  0     0  0
  4  5  1  0     0  0
  5  6  2  0     0  0
  6  7  1  0     0  0
  7 11  1  0     0  0
 11  9  1  0     0  0
  9  8  2  0     0  0
  9 10  1  0     0  0
 11 12  1  1     0  0
 12 14  1  0     0  0
 14 13  2  0     0  0
 14 15  1  0     0  0
 15 16  2  0     0  0
 15 17  1  0     0  0
 16 24  1  0     0  0
 24 19  2  0     0  0
 18 17  2  0     0  0
 18 21  1  0     0  0
 18 19  1  0     0  0
 19 20  1  0     0  0
 20 26  1  0     0  0
 26 23  1  0     0  0
 23 21  1  0     0  0
 21 22  2  0     0  0
 24 25  1  0     0  0
 26 27  1  0     0  0
 17 28  1  0     0  0
 27 29  1  0     0  0
 29 30  1  0     0  0
 30 31  1  0     0  0
 33 32  2  0     0  0
 34 32  1  0     0  0
 31 32  1  0     0  0
M  END
> <ID>
CHEBI:141313

> <NAME>
hapten OTAd

> <DEFINITION>
A synthetic phenylalanine derivative derived formally from the mycotoxin ochratoxin A by replacement of the methyl group  at position 3 of the isochromene ring with a 4-carboxybutyl group.

> <STAR>
3

> <SYNONYM>
N-[[3-(4-carboxybutyl)-5-chloro-3,4-dihydro-8-hydroxy-1-oxo-1H-2-benzopyran-7-yl]carbonyl]-L-phenylalanine; 5-(7-{[(1S)-1-carboxy-2-phenylethyl]carbamoyl}-5-chloro-8-hydroxy-1-oxo-3,4-dihydro-1H-isochromen-3-yl)pentanoic acid

> <IUPAC_NAME>
5-(7-{[(1S)-1-carboxy-2-phenylethyl]carbamoyl}-5-chloro-8-hydroxy-1-oxo-3,4-dihydro-1H-2-benzopyran-3-yl)pentanoic acid

> <FORMULA>
C24H24ClNO8

> <MASS>
489.903

> <MONOISOTOPIC_MASS>
489.11904

> <CHARGE>
0

> <SMILES>
C1=CC=CC=C1C[C@@H](C(=O)O)NC(=O)C2=CC(=C3C(=C2O)C(OC(C3)CCCCC(=O)O)=O)Cl

> <INCHI>
InChI=1S/C24H24ClNO8/c25-17-12-16(22(30)26-18(23(31)32)10-13-6-2-1-3-7-13)21(29)20-15(17)11-14(34-24(20)33)8-4-5-9-19(27)28/h1-3,6-7,12,14,18,29H,4-5,8-11H2,(H,26,30)(H,27,28)(H,31,32)/t14?,18-/m0/s1

> <INCHIKEY>
FTWYAEHEAFBKQR-IBYPIGCZSA-N

> <PUBMED_CITATION>
29950703

$$$$

Ketcher 07121816442D 1   1.00000     0.00000     0

 28 30  0     1  0            999 V2000
   18.9278  -59.7988    0.0000 C   0  0  0  0  0  0  0  0  0  0  0  0
   18.9278  -60.7989    0.0000 C   0  0  0  0  0  0  0  0  0  0  0  0
   19.7938  -61.2989    0.0000 C   0  0  0  0  0  0  0  0  0  0  0  0
   20.6599  -60.7990    0.0000 C   0  0  0  0  0  0  0  0  0  0  0  0
   20.6600  -59.7990    0.0000 C   0  0  0  0  0  0  0  0  0  0  0  0
   19.7939  -59.2989    0.0000 C   0  0  0  0  0  0  0  0  0  0  0  0
   19.7939  -58.2990    0.0000 C   0  0  0  0  0  0  0  0  0  0  0  0
   19.7940  -56.2989    0.0000 O   0  0  0  0  0  0  0  0  0  0  0  0
   20.6600  -56.7989    0.0000 C   0  0  0  0  0  0  0  0  0  0  0  0
   21.5260  -56.2991    0.0000 O   0  0  0  0  0  0  0  0  0  0  0  0
   20.6599  -57.7989    0.0000 C   0  0  0  0  0  0  0  0  0  0  0  0
   21.5260  -58.2990    0.0000 N   0  0  0  0  0  0  0  0  0  0  0  0
   22.3920  -56.7991    0.0000 O   0  0  0  0  0  0  0  0  0  0  0  0
   22.3920  -57.7990    0.0000 C   0  0  0  0  0  0  0  0  0  0  0  0
   23.2579  -58.2990    0.0000 C   0  0  0  0  0  0  0  0  0  0  0  0
   23.2580  -59.2991    0.0000 C   0  0  0  0  0  0  0  0  0  0  0  0
   24.1240  -57.7992    0.0000 C   0  0  0  0  0  0  0  0  0  0  0  0
   24.9901  -58.2993    0.0000 C   0  0  0  0  0  0  0  0  0  0  0  0
   24.9901  -59.2992    0.0000 C   0  0  0  0  0  0  0  0  0  0  0  0
   25.8560  -59.7992    0.0000 C   0  0  0  0  0  0  0  0  0  0  0  0
   25.8561  -57.7992    0.0000 C   0  0  0  0  0  0  0  0  0  0  0  0
   25.8562  -56.7992    0.0000 O   0  0  0  0  0  0  0  0  0  0  0  0
   26.7221  -58.2993    0.0000 O   0  0  0  0  0  0  0  0  0  0  0  0
   24.1240  -59.7991    0.0000 C   0  0  0  0  0  0  0  0  0  0  0  0
   24.1240  -60.7992    0.0000 Cl  0  0  0  0  0  0  0  0  0  0  0  0
   26.7221  -59.2994    0.0000 C   0  0  0  0  0  0  0  0  0  0  0  0
   27.5880  -59.7994    0.0000 C   0  0  0  0  0  0  0  0  0  0  0  0
   24.1241  -56.7992    0.0000 O   0  0  0  0  0  0  0  0  0  0  0  0
  1  2  2  0     0  0
  1  6  1  0     0  0
  2  3  1  0     0  0
  3  4  2  0     0  0
  4  5  1  0     0  0
  5  6  2  0     0  0
  6  7  1  0     0  0
  7 11  1  0     0  0
 11  9  1  0     0  0
  9  8  1  0     0  0
  9 10  2  0     0  0
 11 12  1  1     0  0
 12 14  1  0     0  0
 14 13  2  0     0  0
 14 15  1  0     0  0
 15 16  2  0     0  0
 15 17  1  0     0  0
 16 24  1  0     0  0
 24 19  2  0     0  0
 18 17  2  0     0  0
 18 21  1  0     0  0
 18 19  1  0     0  0
 19 20  1  0     0  0
 20 26  1  0     0  0
 26 23  1  0     0  0
 23 21  1  0     0  0
 21 22  2  0     0  0
 24 25  1  0     0  0
 26 27  1  0     0  0
 17 28  1  0     0  0
M  END
> <ID>
CHEBI:141331

> <NAME>
hapten OTAf

> <DEFINITION>
A synthetic phenylalanine derivative consisting of a 1:1 diatereoisomeric mixture of ochratoxin A and its isochromenyl C-3 epimer.

> <STAR>
3

> <SYNONYM>
N-[(5-chloro-3,4-dihydro-8-hydroxy-3-methyl-1-oxo-1H-2-benzopyran-7-yl)carbonyl]-L-phenylalanine; (2S)-2-{[(5-chloro-8-hydroxy-3-methyl-1-oxo-3,4-dihydro-1H-isochromen-7-yl)carbonyl]amino}-3-phenylpropanoic acid

> <IUPAC_NAME>
(2S)-2-[(5-chloro-8-hydroxy-3-methyl-1-oxo-3,4-dihydro-1H-2-benzopyran-7-carbonyl)amino]-3-phenylpropanoic acid

> <FORMULA>
C20H18ClNO6

> <MASS>
403.814

> <MONOISOTOPIC_MASS>
403.08227

> <CHARGE>
0

> <SMILES>
C1=CC=CC=C1C[C@@H](C(O)=O)NC(=O)C2=CC(=C3C(=C2O)C(OC(C3)C)=O)Cl

> <INCHI>
InChI=1S/C20H18ClNO6/c1-10-7-12-14(21)9-13(17(23)16(12)20(27)28-10)18(24)22-15(19(25)26)8-11-5-3-2-4-6-11/h2-6,9-10,15,23H,7-8H2,1H3,(H,22,24)(H,25,26)/t10?,15-/m0/s1

> <INCHIKEY>
RWQKHEORZBHNRI-WRXSAAJRSA-N

> <PUBMED_CITATION>
29950703

$$$$

Ketcher 08021809562D 1   1.00000     0.00000     0

 27 29  0     1  0            999 V2000
   18.3185   -1.4552    0.0000 C   0  0  0  0  0  0  0  0  0  0  0  0
   17.4524   -1.9552    0.0000 C   0  0  0  0  0  0  0  0  0  0  0  0
   17.4524   -2.9553    0.0000 C   0  0  0  0  0  0  0  0  0  0  0  0
   18.3185   -3.4553    0.0000 C   0  0  0  0  0  0  0  0  0  0  0  0
   19.1845   -2.9553    0.0000 C   0  0  0  0  0  0  0  0  0  0  0  0
   19.1845   -1.9552    0.0000 C   0  0  0  0  0  0  0  0  0  0  0  0
   20.0505   -1.4552    0.0000 C   0  0  0  0  0  0  0  0  0  0  0  0
   21.7825   -0.4553    0.0000 O   0  0  0  0  0  0  0  0  0  0  0  0
   21.7825   -1.4552    0.0000 C   0  0  0  0  0  0  0  0  0  0  0  0
   22.6485   -1.9552    0.0000 O   0  0  0  0  0  0  0  0  0  0  0  0
   20.9165   -1.9552    0.0000 C   0  0  0  0  0  0  0  0  0  0  0  0
   20.9165   -2.9553    0.0000 N   0  0  0  0  0  0  0  0  0  0  0  0
   22.6485   -2.9553    0.0000 O   0  0  0  0  0  0  0  0  0  0  0  0
   21.7825   -3.4552    0.0000 C   0  0  0  0  0  0  0  0  0  0  0  0
   21.7825   -4.4552    0.0000 C   0  0  0  0  0  0  0  0  0  0  0  0
   20.9165   -4.9553    0.0000 C   0  0  0  0  0  0  0  0  0  0  0  0
   22.6485   -4.9553    0.0000 C   0  0  0  0  0  0  0  0  0  0  0  0
   22.6485   -5.9553    0.0000 C   0  0  0  0  0  0  0  0  0  0  0  0
   21.7825   -6.4553    0.0000 C   0  0  0  0  0  0  0  0  0  0  0  0
   21.7825   -7.4553    0.0000 C   0  0  0  0  0  0  0  0  0  0  0  0
   23.5145   -6.4553    0.0000 C   0  0  0  0  0  0  0  0  0  0  0  0
   24.3806   -5.9553    0.0000 O   0  0  0  0  0  0  0  0  0  0  0  0
   23.5145   -7.4553    0.0000 O   0  0  0  0  0  0  0  0  0  0  0  0
   20.9165   -5.9553    0.0000 C   0  0  0  0  0  0  0  0  0  0  0  0
   22.6485   -7.9553    0.0000 C   0  0  0  0  0  0  0  0  0  0  0  0
   22.6485   -8.9553    0.0000 C   0  0  0  0  0  0  0  0  0  0  0  0
   23.5145   -4.4554    0.0000 O   0  0  0  0  0  0  0  0  0  0  0  0
  1  2  2  0     0  0
  1  6  1  0     0  0
  2  3  1  0     0  0
  3  4  2  0     0  0
  4  5  1  0     0  0
  5  6  2  0     0  0
  6  7  1  0     0  0
  7 11  1  0     0  0
 11  9  1  0     0  0
  9  8  2  0     0  0
  9 10  1  0     0  0
 11 12  1  1     0  0
 12 14  1  0     0  0
 14 13  2  0     0  0
 14 15  1  0     0  0
 15 16  2  0     0  0
 15 17  1  0     0  0
 16 24  1  0     0  0
 24 19  2  0     0  0
 18 17  2  0     0  0
 18 21  1  0     0  0
 18 19  1  0     0  0
 19 20  1  0     0  0
 20 25  1  0     0  0
 25 23  1  0     0  0
 23 21  1  0     0  0
 21 22  2  0     0  0
 25 26  1  6     0  0
 17 27  1  0     0  0
M  END
> <ID>
CHEBI:141524

> <NAME>
ochratoxin B

> <DEFINITION>
A phenylalanine derivative resulting from the formal condensation of the amino group of L-phenylalanine with the carboxy group of (3R)-8-hydroxy-3-methyl-1-oxo-3,4-dihydro-1H-2-benzopyran-7-carboxylic acid. Ochratoxin B differs from the more naturally abundant ochratoxin A in the absence of the dihydroisocoumarin chlorine atom. It has cytotoxic effects on kidney and liver cells in vitro but only minor effects in vivo, due to its rapid metabolism and excretion.  It inhibits cell proliferation of human liver HepG2 cells at doses as low as 1 μg/ ml but lacks the genotoxic activity of ochratoxin A, even at higher concentrations.

> <STAR>
3

> <SYNONYM>
OTB; N-{[(3R)-8-hydroxy-3-methyl-1-oxo-3,4-dihydro-1H-isochromen-7-yl]carbonyl}-L-phenylalanine; (2S)-2-{[(3R)-8-hydroxy-3-methyl-1-oxo-3,4-dihydro-1H-2-benzopyran-7-carbonyl]amino}-3-phenylpropanoic acid

> <IUPAC_NAME>
N-[(3R)-8-hydroxy-3-methyl-1-oxo-3,4-dihydro-1H-2-benzopyran-7-carbonyl]-L-phenylalanine

> <FORMULA>
C20H19NO6

> <MASS>
369.369

> <MONOISOTOPIC_MASS>
369.12124

> <CHARGE>
0

> <SMILES>
C1=CC=CC=C1C[C@@H](C(=O)O)NC(=O)C2=CC=C3C(=C2O)C(O[C@@H](C3)C)=O

> <INCHI>
InChI=1S/C20H19NO6/c1-11-9-13-7-8-14(17(22)16(13)20(26)27-11)18(23)21-15(19(24)25)10-12-5-3-2-4-6-12/h2-8,11,15,22H,9-10H2,1H3,(H,21,23)(H,24,25)/t11-,15+/m1/s1

> <INCHIKEY>
DAEYIVCTQUFNTM-ABAIWWIYSA-N

> <BEILSTEIN_REGISTRY_NUMBER>
1300160

> <CAS_REGISTRY_NUMBER>
4825-86-9

> <REAXYS_REGISTRY_NUMBER>
1300160

> <CHEMIDPLUS>
4825-86-9

> <PUBMED_CITATION>
15623466; 15963343; 17161512; 22069651; 22331050; 24968897; 26133228; 28749978; 29428592; 299; 879783

$$$$

Ketcher 10031810412D 1   1.00000     0.00000     0

 28 28  0     1  0            999 V2000
   15.4296   -4.2437    0.0000 P   0  0  0  0  0  0  0  0  0  0  0  0
   14.5636   -4.7437    0.0000 O   0  0  0  0  0  0  0  0  0  0  0  0
   16.2956   -4.7437    0.0000 O   0  0  0  0  0  0  0  0  0  0  0  0
   10.2335   -4.2437    0.0000 C   0  0  0  0  0  0  0  0  0  0  0  0
    9.3675   -4.7437    0.0000 O   0  0  0  0  0  0  0  0  0  0  0  0
   11.0996   -4.7437    0.0000 C   0  0  0  0  0  0  0  0  0  0  0  0
   11.9655   -4.2437    0.0000 C   0  0  0  0  0  0  0  0  0  0  0  0
   12.8316   -4.7437    0.0000 C   0  0  0  0  0  0  0  0  0  0  0  0
   13.6976   -4.2437    0.0000 C   0  0  0  0  0  0  0  0  0  0  0  0
   15.4296   -3.2438    0.0000 O   0  0  0  0  0  0  0  0  0  0  0  0
   11.0997   -5.7438    0.0000 O   0  0  0  0  0  0  0  0  0  0  0  0
   11.9656   -3.2438    0.0000 O   0  0  0  0  0  0  0  0  0  0  0  0
   12.8316   -5.7436    0.0000 O   0  0  0  0  0  0  0  0  0  0  0  0
   15.4296   -5.2436    0.0000 O   0  0  0  0  0  0  0  0  0  0  0  0
   10.2336   -6.2438    0.0000 C   0  0  0  0  0  0  0  0  0  0  0  0
   10.2336   -7.2438    0.0000 C   0  0  0  0  0  0  0  0  0  0  0  0
    9.3675   -5.7438    0.0000 O   0  0  0  0  0  0  0  0  0  0  0  0
    9.3675   -7.7438    0.0000 C   0  0  0  0  0  0  0  0  0  0  0  0
    8.5016   -6.2438    0.0000 C   0  0  0  0  0  0  0  0  0  0  0  0
    8.5016   -7.2438    0.0000 C   0  0  0  0  0  0  0  0  0  0  0  0
   11.0997   -7.7438    0.0000 N   0  0  0  0  0  0  0  0  0  0  0  0
    9.3675   -8.7438    0.0000 O   0  0  0  0  0  0  0  0  0  0  0  0
    7.6355   -7.7438    0.0000 O   0  0  0  0  0  0  0  0  0  0  0  0
    7.6355   -5.7438    0.0000 C   0  0  0  0  0  0  0  0  0  0  0  0
    6.7694   -6.2438    0.0000 O   0  0  0  0  0  0  0  0  0  0  0  0
   11.0997   -8.7438    0.0000 C   0  0  0  0  0  0  0  0  0  0  0  0
   11.9657   -9.2438    0.0000 C   0  0  0  0  0  0  0  0  0  0  0  0
   10.2336   -9.2438    0.0000 O   0  0  0  0  0  0  0  0  0  0  0  0
  1 10  2  0     0  0
  1 14  1  0     0  0
  2  1  1  0     0  0
  1  3  1  0     0  0
  4  5  1  0     0  0
  4  6  1  0     0  0
  6 11  1  6     0  0
  6  7  1  0     0  0
  7 12  1  1     0  0
  7  8  1  0     0  0
  8 13  1  6     0  0
  9  2  1  0     0  0
  8  9  1  0     0  0
 15 16  1  0     0  0
 15 17  1  0     0  0
 16 18  1  0     0  0
 17 19  1  0     0  0
 18 20  1  0     0  0
 19 20  1  0     0  0
 15 11  1  1     0  0
 16 21  1  6     0  0
 18 22  1  1     0  0
 20 23  1  6     0  0
 19 24  1  1     0  0
 25 24  1  0     0  0
 27 26  1  0     0  0
 28 26  2  0     0  0
 21 26  1  0     0  0
M  END
> <ID>
CHEBI:142388

> <NAME>
4-(N-acetyl-beta-D-glucosaminyl)-D-ribitol 1-phosphate

> <DEFINITION>
A disaccharide phosphate consisting of 2-O-(N-acetyl-β-D-glucosaminyl)ribitol phosphorylated at O-1 of the ribitol residue; a 5-phosphate β-WTA (Staphylococcus aureus Wall Teichoic Acid) analogue.

> <STAR>
3

> <SYNONYM>
2-(N-acetyl-beta-L-glucosaminyl)-D-ribitol 5-phosphate

> <IUPAC_NAME>
4-O-(2-acetamido-2-deoxy-beta-D-glucopyranosyl)-1-O-phosphono-D-ribitol

> <FORMULA>
C13H26NO13P

> <MASS>
435.319

> <MONOISOTOPIC_MASS>
435.11418

> <CHARGE>
0

> <SMILES>
P(=O)(O)(OC[C@@H]([C@@H]([C@@H](CO)O[C@H]1[C@@H]([C@H]([C@@H]([C@H](O1)CO)O)O)NC(C)=O)O)O)O

> <INCHI>
InChI=1S/C13H26NO13P/c1-5(17)14-9-12(21)11(20)8(3-16)27-13(9)26-7(2-15)10(19)6(18)4-25-28(22,23)24/h6-13,15-16,18-21H,2-4H2,1H3,(H,14,17)(H2,22,23,24)/t6-,7+,8+,9+,10-,11+,12+,13+/m0/s1

> <INCHIKEY>
UTDJSTSCOBYMHN-SKCKNYEVSA-N

> <PDBECHEM_ACCESSION>
HD4

> <PUBMED_CITATION>
30102105

$$$$

Ketcher 12131815002D 1   1.00000     0.00000     0

 20 21  0     0  0            999 V2000
   14.5323   -6.4001    0.0000 C   0  0  0  0  0  0  0  0  0  0  0  0
   15.3984   -6.9001    0.0000 N   0  0  0  0  0  0  0  0  0  0  0  0
   17.1303   -4.9001    0.0000 C   0  0  0  0  0  0  0  0  0  0  0  0
   13.6663   -6.9001    0.0000 N   0  0  0  0  0  0  0  0  0  0  0  0
   16.2644   -6.4001    0.0000 C   0  0  0  0  0  0  0  0  0  0  0  0
   17.9965   -5.4002    0.0000 C   0  0  0  0  0  0  0  0  0  0  0  0
   12.8003   -6.4001    0.0000 C   0  0  0  0  0  0  0  0  0  0  0  0
   17.1303   -6.9001    0.0000 C   0  0  0  0  0  0  0  0  0  0  0  0
   11.0682   -5.4002    0.0000 C   0  0  0  0  0  0  0  0  0  0  0  0
   18.8625   -4.9001    0.0000 Cl  0  0  0  0  0  0  0  0  0  0  0  0
   10.2022   -4.9001    0.0000 Cl  0  0  0  0  0  0  0  0  0  0  0  0
   11.9343   -6.9001    0.0000 C   0  0  0  0  0  0  0  0  0  0  0  0
   11.9343   -4.9001    0.0000 C   0  0  0  0  0  0  0  0  0  0  0  0
   16.2644   -5.4002    0.0000 C   0  0  0  0  0  0  0  0  0  0  0  0
   14.5323   -5.4002    0.0000 O   0  0  0  0  0  0  0  0  0  0  0  0
   12.8003   -5.4002    0.0000 C   0  0  0  0  0  0  0  0  0  0  0  0
   11.0682   -6.4001    0.0000 C   0  0  0  0  0  0  0  0  0  0  0  0
   10.2022   -6.9001    0.0000 Cl  0  0  0  0  0  0  0  0  0  0  0  0
   17.9965   -6.4001    0.0000 C   0  0  0  0  0  0  0  0  0  0  0  0
   15.3983   -4.9001    0.0000 O   0  0  0  0  0  0  0  0  0  0  0  0
  2  1  1  0     0  0
  4  1  1  0     0  0
 15  1  2  0     0  0
  5  2  1  0     0  0
 14  3  1  0     0  0
  6  3  2  0     0  0
  5 14  2  0     0  0
  7  4  1  0     0  0
  8  5  1  0     0  0
 19  6  1  0     0  0
 10  6  1  0     0  0
  8 19  2  0     0  0
 16  7  2  0     0  0
 12  7  1  0     0  0
 17  9  1  0     0  0
 11  9  1  0     0  0
 13  9  2  0     0  0
 13 16  1  0     0  0
 17 12  2  0     0  0
 17 18  1  0     0  0
 14 20  1  0     0  0
M  END
> <ID>
CHEBI:142786

> <NAME>
2'-hydroxytriclocarban

> <DEFINITION>
A phenylurea that is urea substituted by 4-chloro-2-hydroxyphenyl and 3,4-dichlorophenyl groups at positions 1 and 3 respectively. A metabolite of triclocarban.

> <STAR>
3

> <SYNONYM>
N-(4-chloro-2-hydroxyphenyl)-N'-(3,4-dichlorophenyl)urea; 2'-OH TCC

> <IUPAC_NAME>
1-(4-chloro-2-hydroxyphenyl)-3-(3,4-dichlorophenyl)urea

> <FORMULA>
C13H9Cl3N2O2

> <MASS>
331.582

> <MONOISOTOPIC_MASS>
329.97296

> <CHARGE>
0

> <SMILES>
C(NC1=C(C=C(C=C1)Cl)O)(NC2=CC=C(C(=C2)Cl)Cl)=O

> <INCHI>
InChI=1S/C13H9Cl3N2O2/c14-7-1-4-11(12(19)5-7)18-13(20)17-8-2-3-9(15)10(16)6-8/h1-6,19H,(H2,17,18,20)

> <INCHIKEY>
OKSXGOLSKDABPC-UHFFFAOYSA-N

> <CAS_REGISTRY_NUMBER>
63348-26-5

> <CHEMIDPLUS>
63348-26-5

> <PUBMED_CITATION>
30033524

$$$$

Ketcher 12131816202D 1   1.00000     0.00000     0

 24 25  0     0  0            999 V2000
   14.5322   -6.4000    0.0000 C   0  0  0  0  0  0  0  0  0  0  0  0
   15.3983   -6.9000    0.0000 N   0  0  0  0  0  0  0  0  0  0  0  0
   17.1302   -4.9001    0.0000 C   0  0  0  0  0  0  0  0  0  0  0  0
   13.6662   -6.9000    0.0000 N   0  0  0  0  0  0  0  0  0  0  0  0
   16.2643   -6.4000    0.0000 C   0  0  0  0  0  0  0  0  0  0  0  0
   17.9963   -5.4001    0.0000 C   0  0  0  0  0  0  0  0  0  0  0  0
   12.8002   -6.4000    0.0000 C   0  0  0  0  0  0  0  0  0  0  0  0
   17.1302   -6.9000    0.0000 C   0  0  0  0  0  0  0  0  0  0  0  0
   11.0681   -5.4001    0.0000 C   0  0  0  0  0  0  0  0  0  0  0  0
   18.8623   -4.9001    0.0000 Cl  0  0  0  0  0  0  0  0  0  0  0  0
   10.2021   -4.9001    0.0000 Cl  0  0  0  0  0  0  0  0  0  0  0  0
   11.9342   -6.9000    0.0000 C   0  0  0  0  0  0  0  0  0  0  0  0
   11.9342   -4.9001    0.0000 C   0  0  0  0  0  0  0  0  0  0  0  0
   16.2643   -5.4001    0.0000 C   0  0  0  0  0  0  0  0  0  0  0  0
   14.5322   -5.4001    0.0000 O   0  0  0  0  0  0  0  0  0  0  0  0
   12.8002   -5.4001    0.0000 C   0  0  0  0  0  0  0  0  0  0  0  0
   11.0681   -6.4000    0.0000 C   0  0  0  0  0  0  0  0  0  0  0  0
   10.2021   -6.9000    0.0000 Cl  0  0  0  0  0  0  0  0  0  0  0  0
   17.9963   -6.4000    0.0000 C   0  0  0  0  0  0  0  0  0  0  0  0
   15.3981   -4.9001    0.0000 O   0  0  0  0  0  0  0  0  0  0  0  0
   15.3981   -3.9000    0.0000 S   0  0  0  0  0  0  0  0  0  0  0  0
   14.3981   -3.9001    0.0000 O   0  0  0  0  0  0  0  0  0  0  0  0
   16.3982   -3.9000    0.0000 O   0  0  0  0  0  0  0  0  0  0  0  0
   15.3981   -2.9000    0.0000 O   0  0  0  0  0  0  0  0  0  0  0  0
  2  1  1  0     0  0
  4  1  1  0     0  0
 15  1  2  0     0  0
  5  2  1  0     0  0
 14  3  1  0     0  0
  6  3  2  0     0  0
  5 14  2  0     0  0
  7  4  1  0     0  0
  8  5  1  0     0  0
 19  6  1  0     0  0
 10  6  1  0     0  0
  8 19  2  0     0  0
 16  7  2  0     0  0
 12  7  1  0     0  0
 17  9  1  0     0  0
 11  9  1  0     0  0
 13  9  2  0     0  0
 13 16  1  0     0  0
 17 12  2  0     0  0
 17 18  1  0     0  0
 14 20  1  0     0  0
 22 21  2  0     0  0
 23 21  2  0     0  0
 24 21  1  0     0  0
 20 21  1  0     0  0
M  END
> <ID>
CHEBI:142787

> <NAME>
2'-sulfooxytriclocarban

> <DEFINITION>
A phenylurea that is urea substituted by 4-chloro-2-sulfooxyphenyl and 3,4-dichlorophenyl groups at positions 1 and 3 respectively. A metabolite of triclocarban.

> <STAR>
3

> <SYNONYM>
Urea, N-(4-chloro-2-(sulfooxy)phenyl)-N-(3,4-dichlorophenyl)-; TCC 2'-OSO3H; sulfate of 2'-OH TCC; N-(4-chloro-2-(sulfooxy)phenyl)-N'-(3,4-dichlorophenyl)urea; 2'-OSO3H TCC; 1-(4-chloro-2-sulfooxyphenyl)-3-(3,4-dichlorophenyl)urea

> <IUPAC_NAME>
5-chloro-2-{[(3,4-dichlorophenyl)carbamoyl]amino}phenyl hydrogen sulfate

> <FORMULA>
C13H9Cl3N2O5S

> <MASS>
411.646

> <MONOISOTOPIC_MASS>
409.92978

> <CHARGE>
0

> <SMILES>
C(NC1=C(C=C(C=C1)Cl)OS(=O)(=O)O)(NC2=CC=C(C(=C2)Cl)Cl)=O

> <INCHI>
InChI=1S/C13H9Cl3N2O5S/c14-7-1-4-11(12(5-7)23-24(20,21)22)18-13(19)17-8-2-3-9(15)10(16)6-8/h1-6H,(H2,17,18,19)(H,20,21,22)

> <INCHIKEY>
QQNKOSWYTHSEOP-UHFFFAOYSA-N

> <CAS_REGISTRY_NUMBER>
62950-30-5

> <CHEMIDPLUS>
62950-30-5

> <PUBMED_CITATION>
30033524

$$$$

Ketcher 12141814592D 1   1.00000     0.00000     0

 24 25  0     0  0            999 V2000
   14.6167   -6.9303    0.0000 C   0  0  0  0  0  0  0  0  0  0  0  0
   13.7506   -7.4302    0.0000 N   0  0  0  0  0  0  0  0  0  0  0  0
   12.0187   -5.4303    0.0000 C   0  0  0  0  0  0  0  0  0  0  0  0
   15.4828   -7.4302    0.0000 N   0  0  0  0  0  0  0  0  0  0  0  0
   12.8847   -6.9303    0.0000 C   0  0  0  0  0  0  0  0  0  0  0  0
   11.1526   -5.9304    0.0000 C   0  0  0  0  0  0  0  0  0  0  0  0
   16.3488   -6.9303    0.0000 C   0  0  0  0  0  0  0  0  0  0  0  0
   12.0187   -7.4302    0.0000 C   0  0  0  0  0  0  0  0  0  0  0  0
   18.0808   -5.9304    0.0000 N   0  0  0  0  0  0  0  0  0  0  0  0
   17.2147   -7.4302    0.0000 C   0  0  0  0  0  0  0  0  0  0  0  0
   17.2147   -5.4303    0.0000 C   0  0  0  0  0  0  0  0  0  0  0  0
   12.8847   -5.9304    0.0000 C   0  0  0  0  0  0  0  0  0  0  0  0
   14.6167   -5.9304    0.0000 O   0  0  0  0  0  0  0  0  0  0  0  0
   16.3488   -5.9304    0.0000 C   0  0  0  0  0  0  0  0  0  0  0  0
   18.0808   -6.9303    0.0000 C   0  0  0  0  0  0  0  0  0  0  0  0
   11.1526   -6.9303    0.0000 C   0  0  0  0  0  0  0  0  0  0  0  0
   10.2866   -5.4303    0.0000 O   0  0  0  0  0  0  0  0  0  0  0  0
    9.4204   -5.9303    0.0000 C   0  0  0  0  0  0  0  0  0  0  0  0
    8.5544   -5.4303    0.0000 F   0  0  0  0  0  0  0  0  0  0  0  0
    9.4204   -6.9304    0.0000 F   0  0  0  0  0  0  0  0  0  0  0  0
   10.2865   -6.4304    0.0000 F   0  0  0  0  0  0  0  0  0  0  0  0
   18.9469   -5.4303    0.0000 C   0  0  0  0  0  0  0  0  0  0  0  0
   18.9470   -4.4303    0.0000 O   0  0  0  0  0  0  0  0  0  0  0  0
   19.8130   -5.9304    0.0000 C   0  0  0  0  0  0  0  0  0  0  0  0
  2  1  1  0     0  0
  4  1  1  0     0  0
 13  1  2  0     0  0
  5  2  1  0     0  0
 12  3  1  0     0  0
  6  3  2  0     0  0
  5 12  2  0     0  0
  7  4  1  0     0  0
  8  5  1  0     0  0
 16  6  1  0     0  0
  8 16  2  0     0  0
 14  7  1  0     0  0
 10  7  1  0     0  0
 15  9  1  0     0  0
 11  9  1  0     0  0
 11 14  1  0     0  0
 15 10  1  0     0  0
  6 17  1  0     0  0
 17 18  1  0     0  0
 18 19  1  0     0  0
 18 20  1  0     0  0
 18 21  1  0     0  0
 23 22  2  0     0  0
 24 22  1  0     0  0
  9 22  1  0     0  0
M  END
> <ID>
CHEBI:142791

> <NAME>
N-(1-acetylpiperidin-4-yl)-N'-[4-(trifluoromethoxy)phenyl]urea

> <DEFINITION>
A phenylurea that is urea substituted by 1-acetylpiperidin-4-yl and 4-(trifluoromethoxy)phenyl groups at positions 1 and 3 respectively.

> <STAR>
3

> <SYNONYM>
sEHi, #1555

> <IUPAC_NAME>
N-(1-acetylpiperidin-4-yl)-N'-[4-(trifluoroacetyl)phenyl]urea

> <FORMULA>
C15H18F3N3O3

> <MASS>
345.318

> <MONOISOTOPIC_MASS>
345.13003

> <CHARGE>
0

> <SMILES>
C(NC1=CC=C(C=C1)OC(F)(F)F)(NC2CCN(CC2)C(=O)C)=O

> <INCHI>
InChI=1S/C15H18F3N3O3/c1-10(22)21-8-6-12(7-9-21)20-14(23)19-11-2-4-13(5-3-11)24-15(16,17)18/h2-5,12H,6-9H2,1H3,(H2,19,20,23)

> <INCHIKEY>
UAKAZEQUWPXSOS-UHFFFAOYSA-N

> <PUBMED_CITATION>
30033524

$$$$

Ketcher 12141815352D 1   1.00000     0.00000     0

 25 26  0     0  0            999 V2000
   14.5499   -6.8986    0.0000 C   0  0  0  0  0  0  0  0  0  0  0  0
   13.6878   -7.3963    0.0000 N   0  0  0  0  0  0  0  0  0  0  0  0
   11.9638   -5.4055    0.0000 C   0  0  0  0  0  0  0  0  0  0  0  0
   15.4121   -7.3963    0.0000 N   0  0  0  0  0  0  0  0  0  0  0  0
   12.8258   -6.8986    0.0000 C   0  0  0  0  0  0  0  0  0  0  0  0
   11.1017   -5.9033    0.0000 C   0  0  0  0  0  0  0  0  0  0  0  0
   16.2741   -6.8986    0.0000 C   0  0  0  0  0  0  0  0  0  0  0  0
   11.9638   -7.3963    0.0000 C   0  0  0  0  0  0  0  0  0  0  0  0
   17.9982   -5.9033    0.0000 N   0  0  0  0  0  0  0  0  0  0  0  0
   17.1361   -7.3963    0.0000 C   0  0  0  0  0  0  0  0  0  0  0  0
   17.1361   -5.4055    0.0000 C   0  0  0  0  0  0  0  0  0  0  0  0
   12.8258   -5.9033    0.0000 C   0  0  0  0  0  0  0  0  0  0  0  0
   14.5499   -5.9033    0.0000 O   0  0  0  0  0  0  0  0  0  0  0  0
   16.2741   -5.9033    0.0000 C   0  0  0  0  0  0  0  0  0  0  0  0
   17.9982   -6.8986    0.0000 C   0  0  0  0  0  0  0  0  0  0  0  0
   11.1017   -6.8986    0.0000 C   0  0  0  0  0  0  0  0  0  0  0  0
   10.2396   -5.4055    0.0000 O   0  0  0  0  0  0  0  0  0  0  0  0
    9.3774   -5.9032    0.0000 C   0  0  0  0  0  0  0  0  0  0  0  0
    8.5153   -5.4055    0.0000 F   0  0  0  0  0  0  0  0  0  0  0  0
    9.3774   -6.8987    0.0000 F   0  0  0  0  0  0  0  0  0  0  0  0
   10.2395   -6.4010    0.0000 F   0  0  0  0  0  0  0  0  0  0  0  0
   18.8603   -5.4055    0.0000 S   0  0  0  0  0  0  0  0  0  0  0  0
   18.5055   -4.6113    0.0000 O   0  0  0  0  0  0  0  0  0  0  0  0
   19.3523   -6.1399    0.0000 O   0  0  0  0  0  0  0  0  0  0  0  0
   19.7989   -4.8644    0.0000 C   0  0  0  0  0  0  0  0  0  0  0  0
  2  1  1  0     0  0
  4  1  1  0     0  0
 13  1  2  0     0  0
  5  2  1  0     0  0
 12  3  1  0     0  0
  6  3  2  0     0  0
  5 12  2  0     0  0
  7  4  1  0     0  0
  8  5  1  0     0  0
 16  6  1  0     0  0
  8 16  2  0     0  0
 14  7  1  0     0  0
 10  7  1  0     0  0
 15  9  1  0     0  0
 11  9  1  0     0  0
 11 14  1  0     0  0
 15 10  1  0     0  0
  6 17  1  0     0  0
 17 18  1  0     0  0
 18 19  1  0     0  0
 18 20  1  0     0  0
 18 21  1  0     0  0
 23 22  2  0     0  0
 24 22  2  0     0  0
  9 22  1  0     0  0
 22 25  1  0     0  0
M  END
> <ID>
CHEBI:142793

> <NAME>
N-[1-(methanesulfonyl)piperidin-4-yl]-N'-[4-(trifluoromethoxy)phenyl]urea

> <DEFINITION>
A phenylurea that is urea substituted by 1-(methylsulfonyl)piperidin-4-yl and 4-(trifluoromethoxy)phenyl groups at positions 1 and 3 respectively.

> <STAR>
3

> <SYNONYM>
sEHi, #1709; N-[1-(methylsulfonyl)piperidin-4-yl]-N'-[4-(trifluoromethoxy)phenyl]urea; N-(1-mesylpiperidin-4-yl)-N'-[4-(trifluoromethoxy)phenyl]urea

> <FORMULA>
C14H18F3N3O4S

> <MASS>
381.372

> <MONOISOTOPIC_MASS>
381.09701

> <CHARGE>
0

> <SMILES>
C(NC1=CC=C(C=C1)OC(F)(F)F)(NC2CCN(CC2)S(=O)(=O)C)=O

> <INCHI>
InChI=1S/C14H18F3N3O4S/c1-25(22,23)20-8-6-11(7-9-20)19-13(21)18-10-2-4-12(5-3-10)24-14(15,16)17/h2-5,11H,6-9H2,1H3,(H2,18,19,21)

> <INCHIKEY>
YORLNOBDSZJFQQ-UHFFFAOYSA-N

> <PUBMED_CITATION>
30033524

$$$$

Marvin  10120722222D          

 10  9  0  0  1  0            999 V2000
    0.0000    0.0000    0.0000 C   0  0  3  0  0  0  0  0  0  0  0  0
    0.7145    0.4125    0.0000 C   0  0  0  0  0  0  0  0  0  0  0  0
   -0.7145    0.4125    0.0000 C   0  0  0  0  0  0  0  0  0  0  0  0
   -1.4289    0.0000    0.0000 O   0  0  0  0  0  0  0  0  0  0  0  0
    0.0000   -0.8250    0.0000 O   0  0  0  0  0  0  0  0  0  0  0  0
    1.4289    0.0000    0.0000 O   0  0  0  0  0  0  0  0  0  0  0  0
    2.1434    1.2375    0.0000 O   0  0  0  0  0  0  0  0  0  0  0  0
    2.1434   -0.4125    0.0000 O   0  0  0  0  0  0  0  0  0  0  0  0
    2.1434    0.4125    0.0000 P   0  0  3  0  0  0  0  0  0  0  0  0
    2.8578    0.0000    0.0000 O   0  0  0  0  0  0  0  0  0  0  0  0
  1  5  1  0  0  0  0
  1  2  1  0  0  0  0
  3  1  1  0  0  0  0
  4  3  1  0  0  0  0
  2  6  1  0  0  0  0
  6  9  1  0  0  0  0
  9  7  2  0  0  0  0
  9  8  1  0  0  0  0
  9 10  1  0  0  0  0
M  END
> <ID>
CHEBI:14336

> <NAME>
glycerol 1-phosphate

> <DEFINITION>
A glycerol monophosphate having the phosphate group located at position 1.

> <STAR>
3

> <SYNONYM>
rac-Glycerol 1-phosphate; PG; glycerol alpha-phosphate; Glycerol 1-phosphate; DL-Glyceryl 1-phosphate; DL-Glycerol 3-phosphate; DL-Glycerol 3-phosphate; DL-glycerol 1-phosphate; D,L-alpha-glycerol-phosphate; alpha-phosphoglycerol; alpha-glycerophosphoric acid; 3-glycerophosphate; 2,3-hydroxy-1-propyl dihydrogen phosphate; 2,3-dihydroxypropyl dihydrogen phosphate; 1-phosphoglycerol; 1-glycerophosphoric acid; 1-glycerophosphate; 1,2,3-propanetriol, 1-(dihydrogen phosphate)

> <IUPAC_NAME>
glycerol 1-(dihydrogen phosphate); 2,3-dihydroxypropyl dihydrogen phosphate

> <FORMULA>
C3H9O6P

> <MASS>
172.07370

> <MONOISOTOPIC_MASS>
172.01368

> <CHARGE>
0

> <SMILES>
OCC(O)COP(O)(O)=O

> <INCHI>
InChI=1S/C3H9O6P/c4-1-3(5)2-9-10(6,7)8/h3-5H,1-2H2,(H2,6,7,8)

> <INCHIKEY>
AWUCVROLDVIAJX-UHFFFAOYSA-N

> <CAS_REGISTRY_NUMBER>
57-03-4

> <REAXYS_REGISTRY_NUMBER>
1723974

> <CHEMIDPLUS>
57-03-4

> <HMDB_ACCESSION>
HMDB0000126

> <KEGG_COMPOUND_ACCESSION>
C03189

> <METACYC_ACCESSION>
Glycerol-1-phosphate

> <WIKIPEDIA_ACCESSION>
Glycerol_1-phosphate

> <PUBMED_CITATION>
1694860; 22770225; 29438107; 6083437

$$$$

Ketcher 07231911122D 1   1.00000     0.00000     0

 14 14  0     0  0            999 V2000
   12.5385   -7.5987    0.0000 N   0  0  0  0  0  0  0  0  0  0  0  0
   13.3480   -7.0116    0.0000 C   0  0  0  0  0  0  0  0  0  0  0  0
   12.8467   -8.5500    0.0000 C   0  0  0  0  0  0  0  0  0  0  0  0
   14.1565   -7.6001    0.0000 C   0  0  0  0  0  0  0  0  0  0  0  0
   13.8468   -8.5508    0.0000 C   0  0  0  0  0  0  0  0  0  0  0  0
   13.3489   -6.0116    0.0000 O   0  0  0  0  0  0  0  0  0  0  0  0
   15.1079   -7.2918    0.0000 C   0  0  0  0  0  0  0  0  0  0  0  0
   15.8504   -7.9616    0.0000 C   0  0  0  0  0  0  0  0  0  0  0  0
   15.3165   -6.3139    0.0000 O   0  0  0  0  0  0  0  0  0  0  0  0
   14.4340   -9.3603    0.0000 O   0  0  0  0  0  0  0  0  0  0  0  0
   12.2582   -9.3585    0.0000 C   0  0  0  0  0  0  0  0  0  0  0  0
   12.6641  -10.2724    0.0000 C   0  0  0  0  0  0  0  0  0  0  0  0
   12.0757  -11.0809    0.0000 C   0  0  0  0  0  0  0  0  0  0  0  0
   13.6586  -10.3778    0.0000 C   0  0  0  0  0  0  0  0  0  0  0  0
  2  1  1  0     0  0
  3  1  1  0     0  0
  4  2  1  0     0  0
  5  3  1  0     0  0
  5  4  2  0     0  0
  2  6  2  0     0  0
  4  7  1  0     0  0
  7  8  1  0     0  0
  7  9  2  0     0  0
  5 10  1  0     0  0
  3 11  1  0     0  0
 11 12  1  0     0  0
 12 13  1  0     0  0
 12 14  1  0     0  0
M  END
> <ID>
CHEBI:144316

> <NAME>
isotenuazonic acid

> <DEFINITION>
A pyrroline cyclic ketone that is an isomer of tenuazonic acid, a mycotoxin produced by various plant pathogenic fungi.

> <STAR>
3

> <SYNONYM>
iso-tenuazonic acid; 3-acetyl-4-hydroxy-5-isobutyl-1,5-dihydro-2H-pyrrol-2-one

> <IUPAC_NAME>
3-acetyl-4-hydroxy-5-(2-methylpropyl)-1,5-dihydro-2H-pyrrol-2-one

> <FORMULA>
C10H15NO3

> <MASS>
197.234

> <MONOISOTOPIC_MASS>
197.10519

> <CHARGE>
0

> <SMILES>
N1C(C(=C(C1CC(C)C)O)C(C)=O)=O

> <INCHI>
InChI=1S/C10H15NO3/c1-5(2)4-7-9(13)8(6(3)12)10(14)11-7/h5,7,13H,4H2,1-3H3,(H,11,14)

> <INCHIKEY>
SHHAXAUQMPMPRV-UHFFFAOYSA-N

> <PUBMED_CITATION>
30722884

$$$$

Ketcher 11141912032D 1   1.00000     0.00000     0

 18 19  0     0  0            999 V2000
    9.1875  -25.1524    0.0000 N   0  0  0  0  0  0  0  0  0  0  0  0
    9.1875  -24.1524    0.0000 C   0  0  0  0  0  0  0  0  0  0  0  0
   10.0535  -23.6524    0.0000 C   0  0  0  0  0  0  0  0  0  0  0  0
   10.0535  -22.6524    0.0000 C   0  0  0  0  0  0  0  0  0  0  0  0
    9.1875  -22.1524    0.0000 C   0  0  0  0  0  0  0  0  0  0  0  0
    8.3215  -22.6524    0.0000 C   0  0  0  0  0  0  0  0  0  0  0  0
    8.3215  -23.6524    0.0000 C   0  0  0  0  0  0  0  0  0  0  0  0
    9.1875  -21.1524    0.0000 S   0  0  0  0  0  0  0  0  0  0  0  0
   10.1875  -21.1524    0.0000 O   0  0  0  0  0  0  0  0  0  0  0  0
    8.1875  -21.1524    0.0000 O   0  0  0  0  0  0  0  0  0  0  0  0
    9.1875  -20.1524    0.0000 N   0  0  0  0  0  0  0  0  0  0  0  0
   10.0535  -19.6524    0.0000 C   0  0  0  0  0  0  0  0  0  0  0  0
   10.0535  -18.6524    0.0000 N   0  0  0  0  0  0  0  0  0  0  0  0
   10.9196  -20.1524    0.0000 C   0  0  0  0  0  0  0  0  0  0  0  0
   10.9196  -18.1524    0.0000 C   0  0  0  0  0  0  0  0  0  0  0  0
   11.7856  -19.6524    0.0000 N   0  0  0  0  0  0  0  0  0  0  0  0
   11.7856  -18.6524    0.0000 C   0  0  0  0  0  0  0  0  0  0  0  0
   12.6516  -18.1524    0.0000 Cl  0  0  0  0  0  0  0  0  0  0  0  0
  1  2  1  0     0  0
  2  3  2  0     0  0
  2  7  1  0     0  0
  3  4  1  0     0  0
  4  5  2  0     0  0
  5  6  1  0     0  0
  5  8  1  0     0  0
  6  7  2  0     0  0
  8 10  2  0     0  0
  8  9  2  0     0  0
  8 11  1  0     0  0
 12 13  1  0     0  0
 12 14  2  0     0  0
 13 15  2  0     0  0
 14 16  1  0     0  0
 15 17  1  0     0  0
 16 17  2  0     0  0
 11 12  1  0     0  0
 17 18  1  0     0  0
M  END
> <ID>
CHEBI:145370

> <NAME>
sulfachlorpyrazine

> <DEFINITION>
A sulfonamide containing a 5-chloropyrazin-2-yl moiety linked to the amide nitrogen; principally used in veterinary medicine.

> <STAR>
3

> <SYNONYM>
sulphachloropyrazine; sulfachloropyrazine; 4-amino-N-(5-chloropyrazin-2-yl)benzene-1-sulfonamide

> <IUPAC_NAME>
4-amino-N-(5-chloropyrazin-2-yl)benzenesulfonamide

> <FORMULA>
C10H9ClN4O2S

> <MASS>
284.720

> <MONOISOTOPIC_MASS>
284.01347

> <CHARGE>
0

> <SMILES>
NC1=CC=C(C=C1)S(=O)(=O)NC=2N=CC(=NC2)Cl

> <INCHI>
InChI=1S/C10H9ClN4O2S/c11-9-5-14-10(6-13-9)15-18(16,17)8-3-1-7(12)2-4-8/h1-6H,12H2,(H,14,15)

> <INCHIKEY>
GDANWVKBBCWCIJ-UHFFFAOYSA-N

> <CAS_REGISTRY_NUMBER>
1672-91-9

> <CHEMIDPLUS>
1672-91-9

> <PUBMED_CITATION>
20646202; 23199154; 23682263; 30426022; 30580515; 3776041

$$$$

Ketcher 11181911072D 1   1.00000     0.00000     0

 20 21  0     0  0            999 V2000
    7.2115  -10.5741    0.0000 N   0  0  0  0  0  0  0  0  0  0  0  0
    7.2115   -9.5741    0.0000 C   0  0  0  0  0  0  0  0  0  0  0  0
    8.0775   -9.0741    0.0000 C   0  0  0  0  0  0  0  0  0  0  0  0
    8.0775   -8.0741    0.0000 C   0  0  0  0  0  0  0  0  0  0  0  0
    7.2115   -7.5741    0.0000 C   0  0  0  0  0  0  0  0  0  0  0  0
    6.3455   -8.0741    0.0000 C   0  0  0  0  0  0  0  0  0  0  0  0
    6.3455   -9.0741    0.0000 C   0  0  0  0  0  0  0  0  0  0  0  0
    7.2115   -6.5741    0.0000 S   0  0  0  0  0  0  0  0  0  0  0  0
    8.2115   -6.5741    0.0000 O   0  0  0  0  0  0  0  0  0  0  0  0
    6.2115   -6.5741    0.0000 O   0  0  0  0  0  0  0  0  0  0  0  0
    7.2115   -5.5741    0.0000 N   0  0  0  0  0  0  0  0  0  0  0  0
    8.0775   -5.0741    0.0000 C   0  0  0  0  0  0  0  0  0  0  0  0
    8.9436   -5.5741    0.0000 N   0  0  0  0  0  0  0  0  0  0  0  0
    8.0775   -4.0741    0.0000 N   0  0  0  0  0  0  0  0  0  0  0  0
    9.8097   -4.0741    0.0000 C   0  0  0  0  0  0  0  0  0  0  0  0
    9.8097   -5.0741    0.0000 C   0  0  0  0  0  0  0  0  0  0  0  0
    8.9436   -3.5741    0.0000 C   0  0  0  0  0  0  0  0  0  0  0  0
   10.6757   -3.5741    0.0000 Br  0  0  0  0  0  0  0  0  0  0  0  0
    8.9436   -2.5741    0.0000 C   0  0  0  0  0  0  0  0  0  0  0  0
   10.6757   -5.5741    0.0000 C   0  0  0  0  0  0  0  0  0  0  0  0
  1  2  1  0     0  0
  2  3  2  0     0  0
  2  7  1  0     0  0
  3  4  1  0     0  0
  4  5  2  0     0  0
  5  6  1  0     0  0
  5  8  1  0     0  0
  6  7  2  0     0  0
  8 10  2  0     0  0
  8  9  2  0     0  0
  8 11  1  0     0  0
 11 12  1  0     0  0
 15 16  1  0     0  0
 15 17  2  0     0  0
 16 13  2  0     0  0
 17 14  1  0     0  0
 13 12  1  0     0  0
 14 12  2  0     0  0
 15 18  1  0     0  0
 17 19  1  0     0  0
 16 20  1  0     0  0
M  END
> <ID>
CHEBI:145405

> <NAME>
sulfabromomethazine

> <DEFINITION>
A sulfonamide consisting of 5-bromo-4,6-dimethylpyrimidine with a 4-aminobenzenesulfonamido group at the 2-position. A long-acting derivative of sulfamezathine, it is used in the poultry, swine and cattle industries for the treatment of coccidiosis and various bacterial infections.

> <STAR>
3

> <SYNONYM>
N1-(5-bromo-4,6-dimethyl-2-pyrimidinyl)sulfanilamide; 5-bromosulfamethazine; 4-amino-N-(5-bromo-4,6-dimethyl-2-pyrimidinyl)benzenesulfonamide

> <IUPAC_NAME>
4-amino-N-(5-bromo-4,6-dimethylpyrimidin-2-yl)benzenesulfonamide; 4-amino-N-(5-bromo-4,6-dimethylpyrimidin-2-yl)benzene-1-sulfonamide

> <FORMULA>
C12H13BrN4O2S

> <MASS>
357.230

> <MONOISOTOPIC_MASS>
355.99426

> <CHARGE>
0

> <SMILES>
NC1=CC=C(C=C1)S(=O)(=O)NC=2N=C(C(=C(N2)C)Br)C

> <INCHI>
InChI=1S/C12H13BrN4O2S/c1-7-11(13)8(2)16-12(15-7)17-20(18,19)10-5-3-9(14)4-6-10/h3-6H,14H2,1-2H3,(H,15,16,17)

> <INCHIKEY>
KWXCNODTHBHSIQ-UHFFFAOYSA-N

> <CAS_REGISTRY_NUMBER>
116-45-0

> <CHEMIDPLUS>
116-45-0

> <PUBMED_CITATION>
13533757; 30580515

$$$$

Ketcher 11181912062D 1   1.00000     0.00000     0

 20 21  0     0  0            999 V2000
    9.1874  -31.0919    0.0000 N   0  0  0  0  0  0  0  0  0  0  0  0
    9.1874  -30.0919    0.0000 C   0  0  0  0  0  0  0  0  0  0  0  0
   10.0535  -29.5920    0.0000 C   0  0  0  0  0  0  0  0  0  0  0  0
   10.0535  -28.5920    0.0000 C   0  0  0  0  0  0  0  0  0  0  0  0
    9.1874  -28.0920    0.0000 C   0  0  0  0  0  0  0  0  0  0  0  0
    8.3214  -28.5920    0.0000 C   0  0  0  0  0  0  0  0  0  0  0  0
    8.3214  -29.5920    0.0000 C   0  0  0  0  0  0  0  0  0  0  0  0
    9.1874  -27.0920    0.0000 S   0  0  0  0  0  0  0  0  0  0  0  0
   10.1874  -27.0920    0.0000 O   0  0  0  0  0  0  0  0  0  0  0  0
    8.1875  -27.0920    0.0000 O   0  0  0  0  0  0  0  0  0  0  0  0
    9.1874  -26.0920    0.0000 N   0  0  0  0  0  0  0  0  0  0  0  0
   10.0535  -25.5920    0.0000 C   0  0  0  0  0  0  0  0  0  0  0  0
   10.9195  -26.0920    0.0000 N   0  0  0  0  0  0  0  0  0  0  0  0
   10.0535  -24.5920    0.0000 C   0  0  0  0  0  0  0  0  0  0  0  0
   11.7856  -24.5920    0.0000 C   0  0  0  0  0  0  0  0  0  0  0  0
   11.7856  -25.5920    0.0000 N   0  0  0  0  0  0  0  0  0  0  0  0
   10.9195  -24.0920    0.0000 C   0  0  0  0  0  0  0  0  0  0  0  0
   12.6516  -24.0920    0.0000 O   0  0  0  0  0  0  0  0  0  0  0  0
   12.6516  -23.0920    0.0000 C   0  0  0  0  0  0  0  0  0  0  0  0
   13.5176  -22.5920    0.0000 C   0  0  0  0  0  0  0  0  0  0  0  0
  1  2  1  0     0  0
  2  3  2  0     0  0
  2  7  1  0     0  0
  3  4  1  0     0  0
  4  5  2  0     0  0
  5  6  1  0     0  0
  5  8  1  0     0  0
  6  7  2  0     0  0
  8 10  2  0     0  0
  8  9  2  0     0  0
  8 11  1  0     0  0
 11 12  1  0     0  0
 15 16  1  0     0  0
 15 17  2  0     0  0
 16 13  2  0     0  0
 17 14  1  0     0  0
 13 12  1  0     0  0
 14 12  2  0     0  0
 15 18  1  0     0  0
 18 19  1  0     0  0
 19 20  1  0     0  0
M  END
> <ID>
CHEBI:145407

> <NAME>
sulfaethoxypyridazine

> <DEFINITION>
A sulfonamide consisting of 6-ethoxypyridazine with a 4-aminobenzenesulfonamido group at the 3-position. Generally licensed for veterinary use only against bacterial infections, such as fowl cholera and salmonella infection.

> <STAR>
3

> <SYNONYM>
N(1)-(6-ethoxypyridazin-3-yl)sulphanilamide; N(1)-(6-ethoxy-3-pyridazinyl)sulfanilamide; 4-amino-N-(6-ethoxypyridazin-3-yl)benzenesulfonamide; 4-amino-N-(6-ethoxy-3-pyridazinyl)benzenesulfonamide

> <IUPAC_NAME>
4-amino-N-(6-ethoxypyridazin-3-yl)benzene-1-sulfonamide

> <FORMULA>
C12H14N4O3S

> <MASS>
294.330

> <MONOISOTOPIC_MASS>
294.07866

> <CHARGE>
0

> <SMILES>
NC1=CC=C(C=C1)S(=O)(=O)NC=2N=NC(=CC2)OCC

> <INCHI>
InChI=1S/C12H14N4O3S/c1-2-19-12-8-7-11(14-15-12)16-20(17,18)10-5-3-9(13)4-6-10/h3-8H,2,13H2,1H3,(H,14,16)

> <INCHIKEY>
FFJIWWBSBCOKLS-UHFFFAOYSA-N

> <CAS_REGISTRY_NUMBER>
963-14-4

> <CHEMIDPLUS>
963-14-4

> <DRUGBANK_ACCESSION>
DB11462

> <PUBMED_CITATION>
30580515; 5189754; 5831049; 5963854; 6059670

$$$$

Ketcher 11181912592D 1   1.00000     0.00000     0

 17 17  0     0  0            999 V2000
   10.0067  -48.3448    0.0000 N   0  0  0  0  0  0  0  0  0  0  0  0
   10.0067  -47.3448    0.0000 C   0  0  0  0  0  0  0  0  0  0  0  0
   10.8727  -46.8448    0.0000 C   0  0  0  0  0  0  0  0  0  0  0  0
   10.8727  -45.8449    0.0000 C   0  0  0  0  0  0  0  0  0  0  0  0
   10.0067  -45.3449    0.0000 C   0  0  0  0  0  0  0  0  0  0  0  0
    9.1407  -45.8449    0.0000 C   0  0  0  0  0  0  0  0  0  0  0  0
    9.1407  -46.8448    0.0000 C   0  0  0  0  0  0  0  0  0  0  0  0
   10.0067  -44.3449    0.0000 S   0  0  0  0  0  0  0  0  0  0  0  0
   11.0067  -44.3449    0.0000 O   0  0  0  0  0  0  0  0  0  0  0  0
    9.0067  -44.3449    0.0000 O   0  0  0  0  0  0  0  0  0  0  0  0
   10.0067  -43.3449    0.0000 N   0  0  0  0  0  0  0  0  0  0  0  0
   10.8727  -42.8449    0.0000 C   0  0  0  0  0  0  0  0  0  0  0  0
   10.8727  -41.8449    0.0000 C   0  0  0  0  0  0  0  0  0  0  0  0
   11.7388  -41.3450    0.0000 C   0  0  0  0  0  0  0  0  0  0  0  0
   11.7388  -40.3450    0.0000 C   0  0  0  0  0  0  0  0  0  0  0  0
   10.8728  -39.8449    0.0000 O   0  0  0  0  0  0  0  0  0  0  0  0
   12.6049  -39.8450    0.0000 O   0  0  0  0  0  0  0  0  0  0  0  0
  1  2  1  0     0  0
  2  3  2  0     0  0
  2  7  1  0     0  0
  3  4  1  0     0  0
  4  5  2  0     0  0
  5  6  1  0     0  0
  5  8  1  0     0  0
  6  7  2  0     0  0
  8 10  2  0     0  0
  8  9  2  0     0  0
  8 11  1  0     0  0
 11 12  1  0     0  0
 12 13  1  0     0  0
 13 14  1  0     0  0
 15 16  2  0     0  0
 15 17  1  0     0  0
 14 15  1  0     0  0
M  END
> <ID>
CHEBI:145409

> <NAME>
4-{[(4-aminophenyl)sulfonyl]amino}butanoic acid

> <DEFINITION>
A sulfonamide consisting of butanoic acid with a 4-aminobenzenesulfonamido group at its 4-position.

> <STAR>
3

> <SYNONYM>
acide 4-{[(4-aminophenyl)sulfonyl]amino}butanoique; 4-{[(4-aminophenyl)sulfonyl]amino}butyric acid; 4-{[(4-Aminophenyl)sulfonyl]amino}butansaeure

> <IUPAC_NAME>
4-[(4-aminobenzene-1-sulfonyl)amino]butanoic acid

> <FORMULA>
C10H14N2O4S

> <MASS>
258.290

> <MONOISOTOPIC_MASS>
258.06743

> <CHARGE>
0

> <SMILES>
NC1=CC=C(C=C1)S(=O)(=O)NCCCC(=O)O

> <INCHI>
InChI=1S/C10H14N2O4S/c11-8-3-5-9(6-4-8)17(15,16)12-7-1-2-10(13)14/h3-6,12H,1-2,7,11H2,(H,13,14)

> <INCHIKEY>
PLVIOWGDVCMNAH-UHFFFAOYSA-N

> <CAS_REGISTRY_NUMBER>
457942-90-4

> <PUBMED_CITATION>
30580515

$$$$

Ketcher 11181914082D 1   1.00000     0.00000     0

 19 19  0     0  0            999 V2000
   23.0978  -51.4734    0.0000 N   0  0  0  0  0  0  0  0  0  0  0  0
   23.0978  -50.4734    0.0000 C   0  0  0  0  0  0  0  0  0  0  0  0
   23.9638  -49.9734    0.0000 C   0  0  0  0  0  0  0  0  0  0  0  0
   23.9638  -48.9734    0.0000 C   0  0  0  0  0  0  0  0  0  0  0  0
   23.0978  -48.4734    0.0000 C   0  0  0  0  0  0  0  0  0  0  0  0
   22.2318  -48.9734    0.0000 C   0  0  0  0  0  0  0  0  0  0  0  0
   22.2318  -49.9734    0.0000 C   0  0  0  0  0  0  0  0  0  0  0  0
   23.0978  -47.4734    0.0000 S   0  0  0  0  0  0  0  0  0  0  0  0
   24.0978  -47.4734    0.0000 O   0  0  0  0  0  0  0  0  0  0  0  0
   22.0978  -47.4734    0.0000 O   0  0  0  0  0  0  0  0  0  0  0  0
   23.0978  -46.4734    0.0000 N   0  0  0  0  0  0  0  0  0  0  0  0
   23.9638  -45.9734    0.0000 C   0  0  0  0  0  0  0  0  0  0  0  0
   23.9638  -44.9734    0.0000 C   0  0  0  0  0  0  0  0  0  0  0  0
   24.8299  -44.4734    0.0000 C   0  0  0  0  0  0  0  0  0  0  0  0
   24.8299  -43.4734    0.0000 C   0  0  0  0  0  0  0  0  0  0  0  0
   25.6961  -42.9735    0.0000 C   0  0  0  0  0  0  0  0  0  0  0  0
   25.6962  -41.9735    0.0000 C   0  0  0  0  0  0  0  0  0  0  0  0
   26.5622  -41.4735    0.0000 O   0  0  0  0  0  0  0  0  0  0  0  0
   24.8302  -41.4734    0.0000 O   0  0  0  0  0  0  0  0  0  0  0  0
  1  2  1  0     0  0
  2  3  2  0     0  0
  2  7  1  0     0  0
  3  4  1  0     0  0
  4  5  2  0     0  0
  5  6  1  0     0  0
  5  8  1  0     0  0
  6  7  2  0     0  0
  8 10  2  0     0  0
  8  9  2  0     0  0
  8 11  1  0     0  0
 11 12  1  0     0  0
 12 13  1  0     0  0
 13 14  1  0     0  0
 15 16  1  0     0  0
 14 15  1  0     0  0
 16 17  1  0     0  0
 17 18  1  0     0  0
 17 19  2  0     0  0
M  END
> <ID>
CHEBI:145411

> <NAME>
4-{[(4-aminophenyl)sulfonyl]amino}hexanoic acid

> <DEFINITION>
A sulfonamide consisting of hexanoic acid with a 4-aminobenzenesulfonamido group at its 6-position.

> <STAR>
3

> <SYNONYM>
acide 6-{[(4-aminophenyl)sulfonyl]amino}hexanoique; 6-{[(4-Aminophenyl)sulfonyl]amino}hexansaeure

> <FORMULA>
C12H18N2O4S

> <MASS>
286.350

> <MONOISOTOPIC_MASS>
286.09873

> <CHARGE>
0

> <SMILES>
NC1=CC=C(C=C1)S(=O)(=O)NCCCCCC(O)=O

> <INCHI>
InChI=1S/C12H18N2O4S/c13-10-5-7-11(8-6-10)19(17,18)14-9-3-1-2-4-12(15)16/h5-8,14H,1-4,9,13H2,(H,15,16)

> <INCHIKEY>
XODQANLEVQELEV-UHFFFAOYSA-N

> <CAS_REGISTRY_NUMBER>
30181-27-2

$$$$

Ketcher 11181916052D 1   1.00000     0.00000     0

 23 24  0     0  0            999 V2000
   10.3922  -62.8023    0.0000 N   0  0  0  0  0  0  0  0  0  0  0  0
   10.3922  -61.8023    0.0000 C   0  0  0  0  0  0  0  0  0  0  0  0
   11.2582  -61.3023    0.0000 C   0  0  0  0  0  0  0  0  0  0  0  0
   11.2582  -60.3023    0.0000 C   0  0  0  0  0  0  0  0  0  0  0  0
   10.3922  -59.8023    0.0000 C   0  0  0  0  0  0  0  0  0  0  0  0
    9.5262  -60.3023    0.0000 C   0  0  0  0  0  0  0  0  0  0  0  0
    9.5262  -61.3023    0.0000 C   0  0  0  0  0  0  0  0  0  0  0  0
   10.3922  -58.8023    0.0000 S   0  0  0  0  0  0  0  0  0  0  0  0
   11.3922  -58.8023    0.0000 O   0  0  0  0  0  0  0  0  0  0  0  0
    9.3922  -58.8023    0.0000 O   0  0  0  0  0  0  0  0  0  0  0  0
   10.3922  -57.8023    0.0000 N   0  0  0  0  0  0  0  0  0  0  0  0
   11.2582  -57.3023    0.0000 C   0  0  0  0  0  0  0  0  0  0  0  0
   12.1243  -57.8023    0.0000 C   0  0  0  0  0  0  0  0  0  0  0  0
   11.2582  -56.3024    0.0000 C   0  0  0  0  0  0  0  0  0  0  0  0
   12.9904  -56.3024    0.0000 C   0  0  0  0  0  0  0  0  0  0  0  0
   12.9904  -57.3023    0.0000 C   0  0  0  0  0  0  0  0  0  0  0  0
   12.1243  -55.8024    0.0000 C   0  0  0  0  0  0  0  0  0  0  0  0
   13.8564  -55.8023    0.0000 C   0  0  0  0  0  0  0  0  0  0  0  0
   13.8564  -54.8023    0.0000 C   0  0  0  0  0  0  0  0  0  0  0  0
   14.7224  -54.3023    0.0000 C   0  0  0  0  0  0  0  0  0  0  0  0
   14.7224  -53.3023    0.0000 C   0  0  0  0  0  0  0  0  0  0  0  0
   13.8564  -52.8023    0.0000 O   0  0  0  0  0  0  0  0  0  0  0  0
   15.5885  -52.8023    0.0000 O   0  0  0  0  0  0  0  0  0  0  0  0
  1  2  1  0     0  0
  2  3  2  0     0  0
  2  7  1  0     0  0
  3  4  1  0     0  0
  4  5  2  0     0  0
  5  6  1  0     0  0
  5  8  1  0     0  0
  6  7  2  0     0  0
  8 10  2  0     0  0
  8  9  2  0     0  0
  8 11  1  0     0  0
 11 12  1  0     0  0
 15 16  1  0     0  0
 15 17  2  0     0  0
 16 13  2  0     0  0
 17 14  1  0     0  0
 13 12  1  0     0  0
 14 12  2  0     0  0
 15 18  1  0     0  0
 18 19  1  0     0  0
 19 20  1  0     0  0
 21 22  2  0     0  0
 21 23  1  0     0  0
 20 21  1  0     0  0
M  END
> <ID>
CHEBI:145415

> <NAME>
4-(4-{[(4-aminophenyl)sulfonyl]amino}phenyl)butanoic acid

> <DEFINITION>
A sulfonamide consisting of 4-phenylbutanoic acid with a 4-aminobenzenesulfonamido group at the phenyl 4-position.

> <STAR>
3

> <SYNONYM>
4-[4-[(4-aminophenyl)sulfonylamino]phenyl]butanoic acid; 4-(4-{[(4-aminophenyl)sulfonyl]amino}phenyl)butyric acid

> <IUPAC_NAME>
4-{4-[(4-aminobenzene-1-sulfonyl)amino]phenyl}butanoic acid

> <FORMULA>
C16H18N2O4S

> <MASS>
334.390

> <MONOISOTOPIC_MASS>
334.09873

> <CHARGE>
0

> <SMILES>
NC1=CC=C(C=C1)S(=O)(=O)NC=2C=CC(=CC2)CCCC(=O)O

> <INCHI>
InChI=1S/C16H18N2O4S/c17-13-6-10-15(11-7-13)23(21,22)18-14-8-4-12(5-9-14)2-1-3-16(19)20/h4-11,18H,1-3,17H2,(H,19,20)

> <INCHIKEY>
QRJXAOKWKYCSHS-UHFFFAOYSA-N

> <PUBMED_CITATION>
30580515

$$$$

Ketcher 11191909232D 1   1.00000     0.00000     0

 20 21  0     0  0            999 V2000
   13.4524  -82.1877    0.0000 N   0  0  0  0  0  0  0  0  0  0  0  0
   13.4524  -81.1877    0.0000 C   0  0  0  0  0  0  0  0  0  0  0  0
   14.3184  -80.6877    0.0000 C   0  0  0  0  0  0  0  0  0  0  0  0
   14.3184  -79.6877    0.0000 C   0  0  0  0  0  0  0  0  0  0  0  0
   13.4524  -79.1877    0.0000 C   0  0  0  0  0  0  0  0  0  0  0  0
   12.5864  -79.6877    0.0000 C   0  0  0  0  0  0  0  0  0  0  0  0
   12.5864  -80.6877    0.0000 C   0  0  0  0  0  0  0  0  0  0  0  0
   13.4524  -78.1877    0.0000 S   0  0  0  0  0  0  0  0  0  0  0  0
   14.4524  -78.1877    0.0000 O   0  0  0  0  0  0  0  0  0  0  0  0
   12.4524  -78.1877    0.0000 O   0  0  0  0  0  0  0  0  0  0  0  0
   13.4524  -77.1877    0.0000 N   0  0  0  0  0  0  0  0  0  0  0  0
   14.3184  -76.6877    0.0000 C   0  0  0  0  0  0  0  0  0  0  0  0
   14.3184  -75.6877    0.0000 S   0  0  0  0  0  0  0  0  0  0  0  0
   15.2695  -75.3787    0.0000 C   0  0  0  0  0  0  0  0  0  0  0  0
   15.8573  -76.1877    0.0000 C   0  0  0  0  0  0  0  0  0  0  0  0
   15.2696  -76.9968    0.0000 N   0  0  0  0  0  0  0  0  0  0  0  0
   15.5786  -74.4277    0.0000 C   0  0  0  0  0  0  0  0  0  0  0  0
   16.5567  -74.2199    0.0000 C   0  0  0  0  0  0  0  0  0  0  0  0
   16.8658  -73.2688    0.0000 O   0  0  0  0  0  0  0  0  0  0  0  0
   17.2258  -74.9631    0.0000 O   0  0  0  0  0  0  0  0  0  0  0  0
  1  2  1  0     0  0
  2  3  2  0     0  0
  2  7  1  0     0  0
  3  4  1  0     0  0
  4  5  2  0     0  0
  5  6  1  0     0  0
  5  8  1  0     0  0
  6  7  2  0     0  0
  8 10  2  0     0  0
  8  9  2  0     0  0
  8 11  1  0     0  0
 11 12  1  0     0  0
 13 14  1  0     0  0
 13 12  1  0     0  0
 14 15  2  0     0  0
 12 16  2  0     0  0
 15 16  1  0     0  0
 14 17  1  0     0  0
 18 19  2  0     0  0
 18 20  1  0     0  0
 17 18  1  0     0  0
M  END
> <ID>
CHEBI:145418

> <NAME>
(2-{[(4-aminophenyl)sulfonyl]amino}-1,3-thiazol-5-yl)acetic acid

> <DEFINITION>
A sulfonamide consisting of 1,3-thiazol-5-ylacetic acid with a 4-aminobenzenesulfonamido group at the thiazole 2-position.

> <STAR>
3

> <SYNONYM>
2-[2-[(4-aminophenyl)sulfonylamino]-1,3-thiazol-5-yl]acetic acid

> <IUPAC_NAME>
{2-[(4-aminobenzene-1-sulfonyl)amino]-1,3-thiazol-5-yl}acetic acid

> <FORMULA>
C11H11N3O4S2

> <MASS>
313.350

> <MONOISOTOPIC_MASS>
313.01910

> <CHARGE>
0

> <SMILES>
NC1=CC=C(C=C1)S(=O)(=O)NC=2SC(=CN2)CC(=O)O

> <INCHI>
InChI=1S/C11H11N3O4S2/c12-7-1-3-9(4-2-7)20(17,18)14-11-13-6-8(19-11)5-10(15)16/h1-4,6H,5,12H2,(H,13,14)(H,15,16)

> <INCHIKEY>
NYMIDEKPLFFDQW-UHFFFAOYSA-N

> <PUBMED_CITATION>
30580515

$$$$

Ketcher 12161911032D 1   1.00000     0.00000     0

 49 52  0     1  0            999 V2000
   15.6178  -11.0963    0.0000 C   0  0  0  0  0  0  0  0  0  0  0  0
   15.6178  -12.0963    0.0000 C   0  0  0  0  0  0  0  0  0  0  0  0
   14.7517  -10.5963    0.0000 O   0  0  0  0  0  0  0  0  0  0  0  0
   14.7517  -12.5963    0.0000 C   0  0  0  0  0  0  0  0  0  0  0  0
   13.8858  -11.0963    0.0000 C   0  0  0  0  0  0  0  0  0  0  0  0
   13.8858  -12.0963    0.0000 C   0  0  0  0  0  0  0  0  0  0  0  0
   16.4838  -10.5963    0.0000 O   0  0  0  0  0  0  0  0  0  0  0  0
   16.4838  -12.5963    0.0000 O   0  0  0  0  0  0  0  0  0  0  0  0
   14.7517  -13.5963    0.0000 O   0  0  0  0  0  0  0  0  0  0  0  0
   13.0197  -12.5963    0.0000 O   0  0  0  0  0  0  0  0  0  0  0  0
   13.0197  -10.5963    0.0000 C   0  0  0  0  0  0  0  0  0  0  0  0
   12.1537  -11.0963    0.0000 O   0  0  0  0  0  0  0  0  0  0  0  0
   19.0819   -9.0963    0.0000 C   0  0  0  0  0  0  0  0  0  0  0  0
   19.0819  -10.0963    0.0000 C   0  0  0  0  0  0  0  0  0  0  0  0
   18.2159   -8.5964    0.0000 O   0  0  0  0  0  0  0  0  0  0  0  0
   18.2159  -10.5963    0.0000 C   0  0  0  0  0  0  0  0  0  0  0  0
   17.3499   -9.0963    0.0000 C   0  0  0  0  0  0  0  0  0  0  0  0
   17.3499  -10.0963    0.0000 C   0  0  0  0  0  0  0  0  0  0  0  0
   19.9480   -8.5964    0.0000 O   0  0  0  0  0  0  0  0  0  0  0  0
   18.2159  -11.5963    0.0000 O   0  0  0  0  0  0  0  0  0  0  0  0
   16.4838   -8.5964    0.0000 C   0  0  0  0  0  0  0  0  0  0  0  0
   16.4838   -7.5964    0.0000 O   0  0  0  0  0  0  0  0  0  0  0  0
   12.1538   -5.0962    0.0000 C   0  0  0  0  0  0  0  0  0  0  0  0
   11.2878   -5.5962    0.0000 C   0  0  0  0  0  0  0  0  0  0  0  0
   12.1538   -4.0962    0.0000 O   0  0  0  0  0  0  0  0  0  0  0  0
   10.4218   -5.0961    0.0000 C   0  0  0  0  0  0  0  0  0  0  0  0
   11.2878   -3.5962    0.0000 C   0  0  0  0  0  0  0  0  0  0  0  0
   10.4218   -4.0961    0.0000 C   0  0  0  0  0  0  0  0  0  0  0  0
   13.0198   -5.5963    0.0000 O   0  0  0  0  0  0  0  0  0  0  0  0
   11.2877   -6.5962    0.0000 O   0  0  0  0  0  0  0  0  0  0  0  0
    9.5557   -5.5961    0.0000 O   0  0  0  0  0  0  0  0  0  0  0  0
    9.5557   -3.5961    0.0000 O   0  0  0  0  0  0  0  0  0  0  0  0
   11.2878   -2.5962    0.0000 C   0  0  0  0  0  0  0  0  0  0  0  0
   10.4218   -2.0962    0.0000 O   0  0  0  0  0  0  0  0  0  0  0  0
   15.6178   -7.0964    0.0000 C   0  0  0  0  0  0  0  0  0  0  0  0
   14.7518   -7.5964    0.0000 C   0  0  0  0  0  0  0  0  0  0  0  0
   15.6178   -6.0963    0.0000 O   0  0  0  0  0  0  0  0  0  0  0  0
   13.8858   -7.0963    0.0000 C   0  0  0  0  0  0  0  0  0  0  0  0
   14.7519   -5.5963    0.0000 C   0  0  0  0  0  0  0  0  0  0  0  0
   13.8858   -6.0963    0.0000 C   0  0  0  0  0  0  0  0  0  0  0  0
   14.7517   -8.5964    0.0000 O   0  0  0  0  0  0  0  0  0  0  0  0
   13.0197   -7.5962    0.0000 O   0  0  0  0  0  0  0  0  0  0  0  0
   14.7519   -4.5963    0.0000 C   0  0  0  0  0  0  0  0  0  0  0  0
   13.8859   -4.0963    0.0000 O   0  0  0  0  0  0  0  0  0  0  0  0
   19.9480  -11.5963    0.0000 C   0  0  0  0  0  0  0  0  0  0  0  0
   19.0819  -12.0963    0.0000 O   0  0  0  0  0  0  0  0  0  0  0  0
   19.9480  -10.5963    0.0000 N   0  0  0  0  0  0  0  0  0  0  0  0
   20.8140  -12.0963    0.0000 C   0  0  0  0  0  0  0  0  0  0  0  0
   20.8140   -9.0963    0.0000 C   0  0  0  0  0  0  0  0  0  0  0  0
  1  2  1  0     0  0
  1  3  1  0     0  0
  2  4  1  0     0  0
  3  5  1  0     0  0
  4  6  1  0     0  0
  5  6  1  0     0  0
  1  7  1  1     0  0
  2  8  1  6     0  0
  4  9  1  1     0  0
  6 10  1  1     0  0
  5 11  1  1     0  0
 12 11  1  0     0  0
 13 14  1  0     0  0
 13 15  1  0     0  0
 14 16  1  0     0  0
 15 17  1  0     0  0
 16 18  1  0     0  0
 17 18  1  0     0  0
 13 19  1  1     0  0
 16 20  1  1     0  0
 18  7  1  6     0  0
 17 21  1  1     0  0
 21 22  1  0     0  0
 23 24  1  0     0  0
 23 25  1  0     0  0
 24 26  1  0     0  0
 25 27  1  0     0  0
 26 28  1  0     0  0
 27 28  1  0     0  0
 23 29  1  1     0  0
 24 30  1  6     0  0
 26 31  1  1     0  0
 28 32  1  1     0  0
 27 33  1  1     0  0
 34 33  1  0     0  0
 35 36  1  0     0  0
 35 37  1  0     0  0
 36 38  1  0     0  0
 37 39  1  0     0  0
 38 40  1  0     0  0
 39 40  1  0     0  0
 35 22  1  1     0  0
 36 41  1  6     0  0
 38 42  1  1     0  0
 40 29  1  6     0  0
 39 43  1  1     0  0
 44 43  1  0     0  0
 45 46  2  0     0  0
 45 47  1  0     0  0
 45 48  1  0     0  0
 14 47  1  6     0  0
 19 49  1  0     0  0
M  END
> <ID>
CHEBI:145691

> <NAME>
beta-D-Galp-(1->4)-[beta-D-Galp-(1->4)-beta-D-Glcp-(1->6)]-beta-D-GlcpNAc-OMe

> <DEFINITION>
A methyl glycoside that is β-D-Gal-(1→4)-[β-D-Gal-(1→4)-β-D-Glc-(1→6)]-β-D-GlcNAc in which the hydroxy group at the reducing-end anomeric centre is methylated.

> <STAR>
3

> <SYNONYM>
methyl beta-D-galactosyl-(1->4)-beta-D-glucosyl-(1->6)-[beta-D-galactosyl-(1->4)]-N-acetyl-beta-D-glucosaminide; methyl beta-D-galactosyl-(1->4)-[beta-D-galactosyl-(1->4)-beta-D-glucosyl-(1->6)]-N-acetyl-beta-D-glucosaminide; methyl 2-acetamido-4-O-beta-D-galactopyranosyl-6-O-[4-O-(beta-D-galactopyranosyl)-beta-D-glucopyranosyl]-2-deoxy-beta-D-glucopyranoside; Galbeta1-4Glcbeta1-6(Galbeta1-4)GlcNAcbetaOMe; Galbeta1-4(Galbeta1-4Glcbeta1-6)GlcNAcbetaOMe; beta-D-Galp-(1->4)-beta-D-Glcp-(1->6)-[beta-D-Galp-(1->4)]-beta-D-GlcpNAc-OMe; beta-D-Gal-(1->4)-beta-D-Glc-(1->6)-[beta-D-Gal-(1->4)]-beta-D-GlcNAc-OMe; beta-D-Gal-(1->4)-[beta-D-Gal-(1->4)-beta-D-Glc-(1->6)]-beta-D-GlcNAc-OMe

> <IUPAC_NAME>
methyl beta-D-galactopyranosyl-(1->4)-[beta-D-galactopyranosyl-(1->4)-beta-D-glucopyranosyl-(1->6)]-2-acetamido-2-deoxy-beta-D-glucopyranoside

> <FORMULA>
C27H47NO21

> <MASS>
721.659

> <MONOISOTOPIC_MASS>
721.26406

> <CHARGE>
0

> <SMILES>
[C@@H]1([C@@H]([C@H]([C@H]([C@H](O1)CO)O)O)O)O[C@H]2[C@@H]([C@H]([C@@H](O[C@@H]2CO[C@H]3[C@@H]([C@H]([C@@H]([C@H](O3)CO)O[C@H]4[C@@H]([C@H]([C@H]([C@H](O4)CO)O)O)O)O)O)OC)NC(=O)C)O

> <INCHI>
InChI=1S/C27H47NO21/c1-7(32)28-12-15(35)23(49-27-20(40)17(37)14(34)9(4-30)45-27)11(47-24(12)42-2)6-43-25-21(41)18(38)22(10(5-31)46-25)48-26-19(39)16(36)13(33)8(3-29)44-26/h8-27,29-31,33-41H,3-6H2,1-2H3,(H,28,32)/t8-,9-,10-,11-,12-,13+,14+,15-,16+,17+,18-,19-,20-,21-,22-,23-,24-,25-,26+,27+/m1/s1

> <INCHIKEY>
YZSVBMVCHGKKII-JXHNJFCJSA-N

> <PUBMED_CITATION>
31546911

$$$$

Ketcher 12161912402D 1   1.00000     0.00000     0

 50 53  0     1  0            999 V2000
   31.6901  -30.6264    0.0000 C   0  0  0  0  0  0  0  0  0  0  0  0
   31.6901  -31.6264    0.0000 C   0  0  0  0  0  0  0  0  0  0  0  0
   30.8240  -30.1264    0.0000 O   0  0  0  0  0  0  0  0  0  0  0  0
   30.8240  -32.1264    0.0000 C   0  0  0  0  0  0  0  0  0  0  0  0
   29.9580  -30.6264    0.0000 C   0  0  0  0  0  0  0  0  0  0  0  0
   29.9580  -31.6264    0.0000 C   0  0  0  0  0  0  0  0  0  0  0  0
   32.5561  -30.1264    0.0000 O   0  0  0  0  0  0  0  0  0  0  0  0
   32.5561  -32.1264    0.0000 O   0  0  0  0  0  0  0  0  0  0  0  0
   30.8240  -33.1264    0.0000 O   0  0  0  0  0  0  0  0  0  0  0  0
   29.0920  -32.1264    0.0000 O   0  0  0  0  0  0  0  0  0  0  0  0
   29.0920  -30.1264    0.0000 C   0  0  0  0  0  0  0  0  0  0  0  0
   28.2260  -30.6264    0.0000 O   0  0  0  0  0  0  0  0  0  0  0  0
   35.1542  -28.6264    0.0000 C   0  0  0  0  0  0  0  0  0  0  0  0
   35.1542  -29.6264    0.0000 C   0  0  0  0  0  0  0  0  0  0  0  0
   34.2881  -28.1264    0.0000 O   0  0  0  0  0  0  0  0  0  0  0  0
   34.2881  -30.1264    0.0000 C   0  0  0  0  0  0  0  0  0  0  0  0
   33.4221  -28.6264    0.0000 C   0  0  0  0  0  0  0  0  0  0  0  0
   33.4221  -29.6264    0.0000 C   0  0  0  0  0  0  0  0  0  0  0  0
   36.0202  -28.1264    0.0000 O   0  0  0  0  0  0  0  0  0  0  0  0
   34.2881  -31.1264    0.0000 O   0  0  0  0  0  0  0  0  0  0  0  0
   32.5561  -28.1264    0.0000 C   0  0  0  0  0  0  0  0  0  0  0  0
   32.5561  -27.1264    0.0000 O   0  0  0  0  0  0  0  0  0  0  0  0
   28.2260  -24.6263    0.0000 C   0  0  0  0  0  0  0  0  0  0  0  0
   27.3600  -25.1263    0.0000 C   0  0  0  0  0  0  0  0  0  0  0  0
   28.2260  -23.6262    0.0000 O   0  0  0  0  0  0  0  0  0  0  0  0
   26.4939  -24.6262    0.0000 C   0  0  0  0  0  0  0  0  0  0  0  0
   27.3600  -23.1262    0.0000 C   0  0  0  0  0  0  0  0  0  0  0  0
   26.4940  -23.6262    0.0000 C   0  0  0  0  0  0  0  0  0  0  0  0
   29.0921  -25.1263    0.0000 O   0  0  0  0  0  0  0  0  0  0  0  0
   27.3600  -26.1263    0.0000 O   0  0  0  0  0  0  0  0  0  0  0  0
   25.6279  -25.1261    0.0000 O   0  0  0  0  0  0  0  0  0  0  0  0
   25.6280  -23.1261    0.0000 O   0  0  0  0  0  0  0  0  0  0  0  0
   27.3601  -22.1262    0.0000 C   0  0  0  0  0  0  0  0  0  0  0  0
   26.4941  -21.6262    0.0000 O   0  0  0  0  0  0  0  0  0  0  0  0
   31.6901  -26.6264    0.0000 C   0  0  0  0  0  0  0  0  0  0  0  0
   30.8240  -27.1263    0.0000 C   0  0  0  0  0  0  0  0  0  0  0  0
   31.6901  -25.6264    0.0000 O   0  0  0  0  0  0  0  0  0  0  0  0
   29.9580  -26.6263    0.0000 C   0  0  0  0  0  0  0  0  0  0  0  0
   30.8241  -25.1264    0.0000 C   0  0  0  0  0  0  0  0  0  0  0  0
   29.9581  -25.6264    0.0000 C   0  0  0  0  0  0  0  0  0  0  0  0
   30.8240  -28.1263    0.0000 O   0  0  0  0  0  0  0  0  0  0  0  0
   29.0920  -27.1263    0.0000 O   0  0  0  0  0  0  0  0  0  0  0  0
   30.8241  -24.1264    0.0000 C   0  0  0  0  0  0  0  0  0  0  0  0
   29.9581  -23.6264    0.0000 O   0  0  0  0  0  0  0  0  0  0  0  0
   36.0202  -31.1264    0.0000 C   0  0  0  0  0  0  0  0  0  0  0  0
   35.1541  -31.6264    0.0000 O   0  0  0  0  0  0  0  0  0  0  0  0
   36.0202  -30.1264    0.0000 N   0  0  0  0  0  0  0  0  0  0  0  0
   36.8862  -31.6264    0.0000 C   0  0  0  0  0  0  0  0  0  0  0  0
   36.8862  -28.6264    0.0000 C   0  0  0  0  0  0  0  0  0  0  0  0
   28.2261  -21.6263    0.0000 O   0  0  0  0  0  0  0  0  0  0  0  0
  1  2  1  0     0  0
  1  3  1  0     0  0
  2  4  1  0     0  0
  3  5  1  0     0  0
  4  6  1  0     0  0
  5  6  1  0     0  0
  1  7  1  1     0  0
  2  8  1  6     0  0
  4  9  1  1     0  0
  6 10  1  1     0  0
  5 11  1  1     0  0
 12 11  1  0     0  0
 13 14  1  0     0  0
 13 15  1  0     0  0
 14 16  1  0     0  0
 15 17  1  0     0  0
 16 18  1  0     0  0
 17 18  1  0     0  0
 13 19  1  1     0  0
 16 20  1  1     0  0
 18  7  1  6     0  0
 17 21  1  1     0  0
 21 22  1  0     0  0
 23 24  1  0     0  0
 23 25  1  0     0  0
 24 26  1  0     0  0
 25 27  1  0     0  0
 26 28  1  0     0  0
 27 28  1  0     0  0
 23 29  1  1     0  0
 24 30  1  6     0  0
 26 31  1  1     0  0
 28 32  1  1     0  0
 27 33  1  1     0  0
 34 33  2  0     0  0
 35 36  1  0     0  0
 35 37  1  0     0  0
 36 38  1  0     0  0
 37 39  1  0     0  0
 38 40  1  0     0  0
 39 40  1  0     0  0
 35 22  1  1     0  0
 36 41  1  6     0  0
 38 42  1  1     0  0
 40 29  1  6     0  0
 39 43  1  1     0  0
 44 43  1  0     0  0
 45 46  2  0     0  0
 45 47  1  0     0  0
 45 48  1  0     0  0
 14 47  1  6     0  0
 19 49  1  0     0  0
 33 50  1  0     0  0
M  CHG  1  50  -1
M  END
> <ID>
CHEBI:145692

> <NAME>
beta-D-Galp-(1->4)-[beta-D-GalpA(-)-(1->4)-beta-D-Glcp-(1->6)]-beta-D-GlcpNAc-OMe

> <DEFINITION>
A methyl glycoside that is β-D-Gal-(1→4)-[β-D-Gal-(1→4)-β-D-Glc-(1→6)]-β-D-GlcNAc in which the CH2OH of the galactose within the trisaccharide chain is replaced by anionic carboxylate and the hydroxy group at the reducing-end anomeric centre is methylated.

> <STAR>
3

> <SYNONYM>
methyl beta-D-galactosyl-(1->4)-[beta-D-galacturonosyl-(1->4)-beta-D-glucosyl-(1->6)]-N-acetyl-beta-D-glucosaminide(1-); methyl beta-D-galactosyl-(1->4)-[beta-D-galacturonosyl-(1->4)-beta-D-glucosyl-(1->6)]-2-acetamido-2-deoxy-beta-D-glucoside(1-); methyl 2-acetamido-4-O-beta-D-galactopyranosyl-6-O-[4-O-(beta-D-galactopyranosyl uronate)-beta-D-glucopyranosyl]-2-deoxy-beta-D-glucopyranoside; Galbeta1-4(GalA(-)beta1-4Glcbeta1-6)GlcNAcbetaOMe; GalA(-)beta1-4Glcbeta1-6(Galbeta1-4)GlcNAcbetaOMe; beta-D-GalpA(-)-(1->4)-beta-D-Glcp-(1->6)-[beta-D-Galp-(1->4)]-beta-D-GlcpNAc-OMe; beta-D-GalA(-)-(1->4)-beta-D-Glc-(1->6)-[beta-D-Gal-(1->4)]-beta-D-GlcNAc-OMe; beta-D-Gal-(1->4)-[beta-D-GalA(-)-(1->4)-beta-D-Glc-(1->6)]-beta-D-GlcNAc-OMe

> <IUPAC_NAME>
methyl beta-D-galactopyranosyl-(1->4)-[beta-D-galactopyranuronosyl-(1->4)-beta-D-glucopyranosyl-(1->6)]-2-acetamido-2-deoxy-beta-D-glucopyranoside(1-)

> <FORMULA>
C27H44NO22

> <MASS>
734.635

> <MONOISOTOPIC_MASS>
734.23605

> <CHARGE>
-1

> <SMILES>
[C@@H]1([C@@H]([C@H]([C@H]([C@H](O1)CO)O)O)O)O[C@H]2[C@@H]([C@H]([C@@H](O[C@@H]2CO[C@H]3[C@@H]([C@H]([C@@H]([C@H](O3)CO)O[C@H]4[C@@H]([C@H]([C@H]([C@H](O4)C(=O)[O-])O)O)O)O)O)OC)NC(=O)C)O

> <INCHI>
InChI=1S/C27H45NO22/c1-6(31)28-10-12(33)21(49-26-17(38)13(34)11(32)7(3-29)45-26)9(47-24(10)43-2)5-44-25-19(40)16(37)20(8(4-30)46-25)48-27-18(39)14(35)15(36)22(50-27)23(41)42/h7-22,24-27,29-30,32-40H,3-5H2,1-2H3,(H,28,31)(H,41,42)/p-1/t7-,8-,9-,10-,11+,12-,13+,14+,15-,16-,17-,18-,19-,20-,21-,22+,24-,25-,26+,27-/m1/s1

> <INCHIKEY>
UXFNQYMRPKQWBV-OPXUTIKFSA-M

> <PUBMED_CITATION>
31546911

$$$$

Ketcher 12181911272D 1   1.00000     0.00000     0

 49 52  0     1  0            999 V2000
   18.0757  -87.5658    0.0000 C   0  0  0  0  0  0  0  0  0  0  0  0
   18.0757  -88.5658    0.0000 C   0  0  0  0  0  0  0  0  0  0  0  0
   17.2096  -87.0658    0.0000 O   0  0  0  0  0  0  0  0  0  0  0  0
   17.2096  -89.0658    0.0000 C   0  0  0  0  0  0  0  0  0  0  0  0
   16.3436  -87.5658    0.0000 C   0  0  0  0  0  0  0  0  0  0  0  0
   16.3436  -88.5658    0.0000 C   0  0  0  0  0  0  0  0  0  0  0  0
   18.9417  -87.0658    0.0000 O   0  0  0  0  0  0  0  0  0  0  0  0
   18.9417  -89.0658    0.0000 O   0  0  0  0  0  0  0  0  0  0  0  0
   17.2095  -90.0658    0.0000 O   0  0  0  0  0  0  0  0  0  0  0  0
   15.4776  -89.0658    0.0000 O   0  0  0  0  0  0  0  0  0  0  0  0
   15.4776  -87.0658    0.0000 C   0  0  0  0  0  0  0  0  0  0  0  0
   14.6116  -87.5658    0.0000 N   0  0  0  0  0  0  0  0  0  0  0  0
   21.5397  -85.5658    0.0000 C   0  0  0  0  0  0  0  0  0  0  0  0
   21.5397  -86.5658    0.0000 C   0  0  0  0  0  0  0  0  0  0  0  0
   20.6737  -85.0658    0.0000 O   0  0  0  0  0  0  0  0  0  0  0  0
   20.6737  -87.0658    0.0000 C   0  0  0  0  0  0  0  0  0  0  0  0
   19.8077  -85.5658    0.0000 C   0  0  0  0  0  0  0  0  0  0  0  0
   19.8077  -86.5658    0.0000 C   0  0  0  0  0  0  0  0  0  0  0  0
   22.4057  -85.0658    0.0000 O   0  0  0  0  0  0  0  0  0  0  0  0
   20.6736  -88.0658    0.0000 O   0  0  0  0  0  0  0  0  0  0  0  0
   18.9417  -85.0658    0.0000 C   0  0  0  0  0  0  0  0  0  0  0  0
   18.9417  -84.0658    0.0000 O   0  0  0  0  0  0  0  0  0  0  0  0
   14.6116  -81.5657    0.0000 C   0  0  0  0  0  0  0  0  0  0  0  0
   13.7456  -82.0657    0.0000 C   0  0  0  0  0  0  0  0  0  0  0  0
   14.6116  -80.5656    0.0000 O   0  0  0  0  0  0  0  0  0  0  0  0
   12.8795  -81.5656    0.0000 C   0  0  0  0  0  0  0  0  0  0  0  0
   13.7456  -80.0656    0.0000 C   0  0  0  0  0  0  0  0  0  0  0  0
   12.8795  -80.5656    0.0000 C   0  0  0  0  0  0  0  0  0  0  0  0
   15.4777  -82.0657    0.0000 O   0  0  0  0  0  0  0  0  0  0  0  0
   13.7456  -83.0657    0.0000 O   0  0  0  0  0  0  0  0  0  0  0  0
   12.0135  -82.0655    0.0000 O   0  0  0  0  0  0  0  0  0  0  0  0
   12.0136  -80.0656    0.0000 O   0  0  0  0  0  0  0  0  0  0  0  0
   13.7456  -79.0656    0.0000 C   0  0  0  0  0  0  0  0  0  0  0  0
   12.8796  -78.5656    0.0000 O   0  0  0  0  0  0  0  0  0  0  0  0
   18.0756  -83.5658    0.0000 C   0  0  0  0  0  0  0  0  0  0  0  0
   17.2096  -84.0657    0.0000 C   0  0  0  0  0  0  0  0  0  0  0  0
   18.0757  -82.5657    0.0000 O   0  0  0  0  0  0  0  0  0  0  0  0
   16.3436  -83.5657    0.0000 C   0  0  0  0  0  0  0  0  0  0  0  0
   17.2097  -82.0658    0.0000 C   0  0  0  0  0  0  0  0  0  0  0  0
   16.3436  -82.5657    0.0000 C   0  0  0  0  0  0  0  0  0  0  0  0
   17.2096  -85.0657    0.0000 O   0  0  0  0  0  0  0  0  0  0  0  0
   15.4775  -84.0657    0.0000 O   0  0  0  0  0  0  0  0  0  0  0  0
   17.2097  -81.0658    0.0000 C   0  0  0  0  0  0  0  0  0  0  0  0
   16.3437  -80.5658    0.0000 O   0  0  0  0  0  0  0  0  0  0  0  0
   22.4057  -88.0658    0.0000 C   0  0  0  0  0  0  0  0  0  0  0  0
   21.5397  -88.5658    0.0000 O   0  0  0  0  0  0  0  0  0  0  0  0
   22.4057  -87.0658    0.0000 N   0  0  0  0  0  0  0  0  0  0  0  0
   23.2718  -88.5658    0.0000 C   0  0  0  0  0  0  0  0  0  0  0  0
   23.2718  -85.5658    0.0000 C   0  0  0  0  0  0  0  0  0  0  0  0
  1  2  1  0     0  0
  1  3  1  0     0  0
  2  4  1  0     0  0
  3  5  1  0     0  0
  4  6  1  0     0  0
  5  6  1  0     0  0
  1  7  1  1     0  0
  2  8  1  6     0  0
  4  9  1  1     0  0
  6 10  1  1     0  0
  5 11  1  1     0  0
 12 11  1  0     0  0
 13 14  1  0     0  0
 13 15  1  0     0  0
 14 16  1  0     0  0
 15 17  1  0     0  0
 16 18  1  0     0  0
 17 18  1  0     0  0
 13 19  1  1     0  0
 16 20  1  1     0  0
 18  7  1  6     0  0
 17 21  1  1     0  0
 21 22  1  0     0  0
 23 24  1  0     0  0
 23 25  1  0     0  0
 24 26  1  0     0  0
 25 27  1  0     0  0
 26 28  1  0     0  0
 27 28  1  0     0  0
 23 29  1  1     0  0
 24 30  1  6     0  0
 26 31  1  1     0  0
 28 32  1  1     0  0
 27 33  1  1     0  0
 34 33  1  0     0  0
 35 36  1  0     0  0
 35 37  1  0     0  0
 36 38  1  0     0  0
 37 39  1  0     0  0
 38 40  1  0     0  0
 39 40  1  0     0  0
 35 22  1  1     0  0
 36 41  1  6     0  0
 38 42  1  1     0  0
 40 29  1  6     0  0
 39 43  1  1     0  0
 44 43  1  0     0  0
 45 46  2  0     0  0
 45 47  1  0     0  0
 45 48  1  0     0  0
 14 47  1  6     0  0
 19 49  1  0     0  0
M  CHG  1  12   1
M  END
> <ID>
CHEBI:145703

> <NAME>
beta-D-Galp6N(+)-(1->4)-[beta-D-Galp-(1->4)-beta-D-Glcp-(1->6)]-beta-D-GlcpNAc-OMe

> <DEFINITION>
A methyl glycoside that is β-D-Gal-(1→4)-[β-D-Gal-(1→4)-β-D-Glc-(1→6)]-β-D-GlcNAc in which the hydroxy group at position 6 of the galactose residue linked to O-4 of the reducing end glucosyl residue is replaced by an ammoniumyl group and the hydroxy group at the reducing-end anomeric centre is methylated.

> <STAR>
3

> <SYNONYM>
methyl beta-D-galactosyl-(1->4)-beta-D-glucosyl-(1->6)-[6-ammonio-6-deoxy-beta-D-galactosyl-(1->4)]-N-acetyl-beta-D-glucosaminide; methyl 6-ammonio-6-deoxy-beta-D-galactosyl-(1->4)-[beta-D-galactosyl-(1->4)-beta-D-glucosyl-(1->6)]-N-acetyl-beta-D-glucosaminide; methyl 2-acetamido-4-O-(6-azaniumyl-6-deoxy-beta-D-galactopyranosyl)-6-O-[4-O-(beta-D-galactopyranosyl)-beta-D-glucopyranosyl]-2-deoxy-beta-D-glucopyranoside; Galbeta1-4Glcbeta1-6(Gal6N(+)beta1-4)GlcNAcbetaOMe; Gal6N(+)beta1-4(Galbeta1-4Glcbeta1-6)GlcNAcbetaOMe; beta-D-Galp-(1->4)-beta-D-Glcp-(1->6)-[beta-D-Galp6N(+)-(1->4)]-beta-D-GlcpNAc-OMe; beta-D-Gal6N(+)-(1->4)-[beta-D-Gal-(1->4)-beta-D-Glc-(1->6)]-beta-D-GlcNAc-OMe; beta-D-Gal-(1->4)-beta-D-Glc-(1->6)-[beta-D-Gal6N(+)-(1->4)]-beta-D-GlcNAc-OMe

> <IUPAC_NAME>
methyl 6-azaniumyl-6-deoxy-beta-D-galactopyranosyl-(1->4)-[beta-D-galactopyranosyl-(1->4)-beta-D-glucopyranosyl-(1->6)]-2-acetamido-2-deoxy-beta-D-glucopyranoside

> <FORMULA>
C27H49N2O20

> <MASS>
721.682

> <MONOISOTOPIC_MASS>
721.28732

> <CHARGE>
1

> <SMILES>
[C@@H]1([C@@H]([C@H]([C@H]([C@H](O1)C[NH3+])O)O)O)O[C@H]2[C@@H]([C@H]([C@@H](O[C@@H]2CO[C@H]3[C@@H]([C@H]([C@@H]([C@H](O3)CO)O[C@H]4[C@@H]([C@H]([C@H]([C@H](O4)CO)O)O)O)O)O)OC)NC(=O)C)O

> <INCHI>
InChI=1S/C27H48N2O20/c1-7(32)29-12-15(35)23(49-26-19(39)16(36)13(33)8(3-28)44-26)11(47-24(12)42-2)6-43-25-21(41)18(38)22(10(5-31)46-25)48-27-20(40)17(37)14(34)9(4-30)45-27/h8-27,30-31,33-41H,3-6,28H2,1-2H3,(H,29,32)/p+1/t8-,9-,10-,11-,12-,13+,14+,15-,16+,17+,18-,19-,20-,21-,22-,23-,24-,25-,26+,27+/m1/s1

> <INCHIKEY>
FEIRESOVYDAKQU-JXHNJFCJSA-O

> <PUBMED_CITATION>
31546911

$$$$

Ketcher 12181912202D 1   1.00000     0.00000     0

 50 53  0     1  0            999 V2000
   18.0274 -106.5414    0.0000 C   0  0  0  0  0  0  0  0  0  0  0  0
   18.0274 -107.5414    0.0000 C   0  0  0  0  0  0  0  0  0  0  0  0
   17.1614 -106.0414    0.0000 O   0  0  0  0  0  0  0  0  0  0  0  0
   17.1614 -108.0414    0.0000 C   0  0  0  0  0  0  0  0  0  0  0  0
   16.2954 -106.5414    0.0000 C   0  0  0  0  0  0  0  0  0  0  0  0
   16.2954 -107.5414    0.0000 C   0  0  0  0  0  0  0  0  0  0  0  0
   18.8935 -106.0413    0.0000 O   0  0  0  0  0  0  0  0  0  0  0  0
   18.8935 -108.0414    0.0000 O   0  0  0  0  0  0  0  0  0  0  0  0
   17.1613 -109.0414    0.0000 O   0  0  0  0  0  0  0  0  0  0  0  0
   15.4293 -108.0414    0.0000 O   0  0  0  0  0  0  0  0  0  0  0  0
   15.4293 -106.0414    0.0000 C   0  0  0  0  0  0  0  0  0  0  0  0
   14.5633 -106.5414    0.0000 N   0  0  0  0  0  0  0  0  0  0  0  0
   21.4915 -104.5414    0.0000 C   0  0  0  0  0  0  0  0  0  0  0  0
   21.4915 -105.5414    0.0000 C   0  0  0  0  0  0  0  0  0  0  0  0
   20.6255 -104.0414    0.0000 O   0  0  0  0  0  0  0  0  0  0  0  0
   20.6255 -106.0414    0.0000 C   0  0  0  0  0  0  0  0  0  0  0  0
   19.7595 -104.5414    0.0000 C   0  0  0  0  0  0  0  0  0  0  0  0
   19.7595 -105.5414    0.0000 C   0  0  0  0  0  0  0  0  0  0  0  0
   22.3575 -104.0413    0.0000 O   0  0  0  0  0  0  0  0  0  0  0  0
   20.6254 -107.0414    0.0000 O   0  0  0  0  0  0  0  0  0  0  0  0
   18.8935 -104.0414    0.0000 C   0  0  0  0  0  0  0  0  0  0  0  0
   18.8935 -103.0414    0.0000 O   0  0  0  0  0  0  0  0  0  0  0  0
   14.5634 -100.5413    0.0000 C   0  0  0  0  0  0  0  0  0  0  0  0
   13.6973 -101.0412    0.0000 C   0  0  0  0  0  0  0  0  0  0  0  0
   14.5634  -99.5412    0.0000 O   0  0  0  0  0  0  0  0  0  0  0  0
   12.8313 -100.5411    0.0000 C   0  0  0  0  0  0  0  0  0  0  0  0
   13.6974  -99.0412    0.0000 C   0  0  0  0  0  0  0  0  0  0  0  0
   12.8313  -99.5412    0.0000 C   0  0  0  0  0  0  0  0  0  0  0  0
   15.4294 -101.0413    0.0000 O   0  0  0  0  0  0  0  0  0  0  0  0
   13.6973 -102.0412    0.0000 O   0  0  0  0  0  0  0  0  0  0  0  0
   11.9652 -101.0411    0.0000 O   0  0  0  0  0  0  0  0  0  0  0  0
   11.9654  -99.0411    0.0000 O   0  0  0  0  0  0  0  0  0  0  0  0
   13.6974  -98.0412    0.0000 C   0  0  0  0  0  0  0  0  0  0  0  0
   12.8314  -97.5412    0.0000 O   0  0  0  0  0  0  0  0  0  0  0  0
   18.0274 -102.5413    0.0000 C   0  0  0  0  0  0  0  0  0  0  0  0
   17.1614 -103.0413    0.0000 C   0  0  0  0  0  0  0  0  0  0  0  0
   18.0274 -101.5414    0.0000 O   0  0  0  0  0  0  0  0  0  0  0  0
   16.2954 -102.5413    0.0000 C   0  0  0  0  0  0  0  0  0  0  0  0
   17.1614 -101.0414    0.0000 C   0  0  0  0  0  0  0  0  0  0  0  0
   16.2954 -101.5413    0.0000 C   0  0  0  0  0  0  0  0  0  0  0  0
   17.1614 -104.0413    0.0000 O   0  0  0  0  0  0  0  0  0  0  0  0
   15.4293 -103.0412    0.0000 O   0  0  0  0  0  0  0  0  0  0  0  0
   17.1614 -100.0414    0.0000 C   0  0  0  0  0  0  0  0  0  0  0  0
   16.2954  -99.5413    0.0000 O   0  0  0  0  0  0  0  0  0  0  0  0
   22.3575 -107.0414    0.0000 C   0  0  0  0  0  0  0  0  0  0  0  0
   21.4915 -107.5414    0.0000 O   0  0  0  0  0  0  0  0  0  0  0  0
   22.3576 -106.0414    0.0000 N   0  0  0  0  0  0  0  0  0  0  0  0
   23.2236 -107.5414    0.0000 C   0  0  0  0  0  0  0  0  0  0  0  0
   23.2236 -104.5413    0.0000 C   0  0  0  0  0  0  0  0  0  0  0  0
   14.5635  -97.5412    0.0000 O   0  0  0  0  0  0  0  0  0  0  0  0
  1  2  1  0     0  0
  1  3  1  0     0  0
  2  4  1  0     0  0
  3  5  1  0     0  0
  4  6  1  0     0  0
  5  6  1  0     0  0
  1  7  1  1     0  0
  2  8  1  6     0  0
  4  9  1  1     0  0
  6 10  1  1     0  0
  5 11  1  1     0  0
 12 11  1  0     0  0
 13 14  1  0     0  0
 13 15  1  0     0  0
 14 16  1  0     0  0
 15 17  1  0     0  0
 16 18  1  0     0  0
 17 18  1  0     0  0
 13 19  1  1     0  0
 16 20  1  1     0  0
 18  7  1  6     0  0
 17 21  1  1     0  0
 21 22  1  0     0  0
 23 24  1  0     0  0
 23 25  1  0     0  0
 24 26  1  0     0  0
 25 27  1  0     0  0
 26 28  1  0     0  0
 27 28  1  0     0  0
 23 29  1  1     0  0
 24 30  1  6     0  0
 26 31  1  1     0  0
 28 32  1  1     0  0
 27 33  1  1     0  0
 34 33  2  0     0  0
 35 36  1  0     0  0
 35 37  1  0     0  0
 36 38  1  0     0  0
 37 39  1  0     0  0
 38 40  1  0     0  0
 39 40  1  0     0  0
 35 22  1  1     0  0
 36 41  1  6     0  0
 38 42  1  1     0  0
 40 29  1  6     0  0
 39 43  1  1     0  0
 44 43  1  0     0  0
 45 46  2  0     0  0
 45 47  1  0     0  0
 45 48  1  0     0  0
 14 47  1  6     0  0
 19 49  1  0     0  0
 33 50  1  0     0  0
M  CHG  2  12   1  50  -1
M  END
> <ID>
CHEBI:145704

> <NAME>
beta-D-Galp6N(+)-(1->4)-[beta-D-GalpA(-)-(1->4)-beta-D-Glcp-(1->6)]-beta-D-GlcpNAc-OMe

> <DEFINITION>
A methyl glycoside that is β-D-Gal-(1→4)-[β-D-Gal-(1→4)-β-D-Glc-(1→6)]-β-D-GlcNAc in which the CH2OH of the galactose within the trisaccharide chain is replaced by anionic carboxylate, the hydroxy group at position 6 of the galactose residue linked to O-4 of the reducing end glucosaminyl residue is replaced by an ammoniumyl group and the hydroxy group at the reducing-end anomeric centre is methylated.

> <STAR>
3

> <SYNONYM>
methyl 6-ammonio-6-deoxy-beta-D-galactosyl-(1->4)-[beta-D-galacturonosyl-(1->4)-beta-D-glucosyl-(1->6)]-N-acetyl-beta-D-glucosaminide; methyl 6-ammonio-6-deoxy-beta-D-galactosyl-(1->4)-[beta-D-galacturonosyl-(1->4)-beta-D-glucosyl-(1->6)]-2-acetamido-2-deoxy-beta-D-glucoside; methyl 2-acetamido-4-O-(6-ammonio-6-deoxy-beta-D-galactopyranosyl)-6-O-[4-O-(beta-D-galactopyranosyl uronate)-beta-D-glucopyranosyl]-2-deoxy-beta-D-glucopyranoside; GalA(-)beta1-4Glcbeta1-6(Gal6N(+)beta1-4)GlcNAcbetaOMe; Gal6N(+)beta1-4(GalA(-)beta1-4Glcbeta1-6)GlcNAcbetaOMe; beta-D-GalpA(-)-(1->4)-beta-D-Glcp-(1->6)-[beta-D-Galp6N(+)-(1->4)]-beta-D-GlcpNAc-OMe; beta-D-GalA(-)-(1->4)-beta-D-Glc-(1->6)-[beta-D-Gal6N(+)-(1->4)]-beta-D-GlcNAc-OMe; beta-D-Gal6N(+)-(1->4)-[beta-D-GalA(-)-(1->4)-beta-D-Glc-(1->6)]-beta-D-GlcNAc-OMe

> <IUPAC_NAME>
methyl 6-azaniumyl-6-deoxy-beta-D-galactopyranosyl-(1->4)-[beta-D-galactopyranuronosyl-(1->4)-beta-D-glucopyranosyl-(1->6)]-2-acetamido-2-deoxy-beta-D-glucopyranoside

> <FORMULA>
C27H46N2O21

> <MASS>
734.658

> <MONOISOTOPIC_MASS>
734.25931

> <CHARGE>
0

> <SMILES>
[C@@H]1([C@@H]([C@H]([C@H]([C@H](O1)C[NH3+])O)O)O)O[C@H]2[C@@H]([C@H]([C@@H](O[C@@H]2CO[C@H]3[C@@H]([C@H]([C@@H]([C@H](O3)CO)O[C@H]4[C@@H]([C@H]([C@H]([C@H](O4)C(=O)[O-])O)O)O)O)O)OC)NC(=O)C)O

> <INCHI>
InChI=1S/C27H46N2O21/c1-6(31)29-10-12(33)21(49-26-17(38)13(34)11(32)7(3-28)45-26)9(47-24(10)43-2)5-44-25-19(40)16(37)20(8(4-30)46-25)48-27-18(39)14(35)15(36)22(50-27)23(41)42/h7-22,24-27,30,32-40H,3-5,28H2,1-2H3,(H,29,31)(H,41,42)/t7-,8-,9-,10-,11+,12-,13+,14+,15-,16-,17-,18-,19-,20-,21-,22+,24-,25-,26+,27-/m1/s1

> <INCHIKEY>
GTKZIFSOBCBOTH-OPXUTIKFSA-N

> <PUBMED_CITATION>
31546911

$$$$

Ketcher 12201909532D 1   1.00000     0.00000     0

 34 36  0     1  0            999 V2000
   13.6296  -34.1517    0.0000 C   0  0  0  0  0  0  0  0  0  0  0  0
   14.4957  -33.6517    0.0000 C   0  0  0  0  0  0  0  0  0  0  0  0
   13.6296  -35.1515    0.0000 O   0  0  0  0  0  0  0  0  0  0  0  0
   12.7636  -33.6517    0.0000 C   0  0  0  0  0  0  0  0  0  0  0  0
   14.4957  -32.6516    0.0000 C   0  0  0  0  0  0  0  0  0  0  0  0
   12.7636  -32.6516    0.0000 C   0  0  0  0  0  0  0  0  0  0  0  0
   11.8976  -34.1517    0.0000 O   0  0  0  0  0  0  0  0  0  0  0  0
   13.6296  -32.1516    0.0000 O   0  0  0  0  0  0  0  0  0  0  0  0
   15.3616  -32.1516    0.0000 O   0  0  0  0  0  0  0  0  0  0  0  0
   11.8976  -32.1516    0.0000 C   0  0  0  0  0  0  0  0  0  0  0  0
   15.3616  -34.1517    0.0000 O   0  0  0  0  0  0  0  0  0  0  0  0
   11.8976  -31.1516    0.0000 O   0  0  0  0  0  0  0  0  0  0  0  0
    9.2995  -32.6516    0.0000 C   0  0  0  0  0  0  0  0  0  0  0  0
    9.2995  -33.6516    0.0000 C   0  0  0  0  0  0  0  0  0  0  0  0
   11.0316  -33.6517    0.0000 C   0  0  0  0  0  0  0  0  0  0  0  0
   11.0316  -32.6516    0.0000 O   0  0  0  0  0  0  0  0  0  0  0  0
   10.1656  -34.1516    0.0000 C   0  0  0  0  0  0  0  0  0  0  0  0
   10.1656  -32.1516    0.0000 C   0  0  0  0  0  0  0  0  0  0  0  0
   10.1655  -35.1515    0.0000 O   0  0  0  0  0  0  0  0  0  0  0  0
    8.4335  -34.1516    0.0000 O   0  0  0  0  0  0  0  0  0  0  0  0
    8.4335  -32.1516    0.0000 O   0  0  0  0  0  0  0  0  0  0  0  0
   10.1656  -31.1516    0.0000 C   0  0  0  0  0  0  0  0  0  0  0  0
    9.2996  -30.6516    0.0000 O   0  0  0  0  0  0  0  0  0  0  0  0
   12.1295  -36.0175    0.0000 O   0  0  0  0  0  0  0  0  0  0  0  0
   11.6294  -36.8835    0.0000 C   0  0  0  0  0  0  0  0  0  0  0  0
   13.1295  -36.0175    0.0000 C   0  0  0  0  0  0  0  0  0  0  0  0
   13.6296  -36.8835    0.0000 C   0  0  0  0  0  0  0  0  0  0  0  0
   13.1294  -37.7495    0.0000 C   0  0  0  0  0  0  0  0  0  0  0  0
   12.1295  -37.7496    0.0000 C   0  0  0  0  0  0  0  0  0  0  0  0
   14.6295  -36.8836    0.0000 O   0  0  0  0  0  0  0  0  0  0  0  0
   13.6294  -38.6156    0.0000 O   0  0  0  0  0  0  0  0  0  0  0  0
   11.6295  -38.6156    0.0000 O   0  0  0  0  0  0  0  0  0  0  0  0
   10.6295  -36.8834    0.0000 C   0  0  0  0  0  0  0  0  0  0  0  0
   16.2276  -32.6516    0.0000 C   0  0  0  0  0  0  0  0  0  0  0  0
  1  2  1  0     0  0
  1  3  1  1     0  0
  1  4  1  0     0  0
  2  5  1  0     0  0
  2 11  1  6     0  0
  4  6  1  0     0  0
  4  7  1  6     0  0
  5  8  1  0     0  0
  5  9  1  1     0  0
  6 10  1  1     0  0
  6  8  1  0     0  0
 10 12  1  0     0  0
 13 21  1  1     0  0
 14 13  1  0     0  0
 14 20  1  1     0  0
 15 16  1  0     0  0
 15 17  1  0     0  0
 17 14  1  0     0  0
 17 19  1  6     0  0
 18 13  1  0     0  0
 16 18  1  0     0  0
 18 22  1  1     0  0
 22 23  1  0     0  0
 15  7  1  1     0  0
 25 24  1  0     0  0
 26 24  1  0     0  0
 26  3  1  1     0  0
 26 27  1  0     0  0
 27 30  1  1     0  0
 27 28  1  0     0  0
 28 31  1  6     0  0
 28 29  1  0     0  0
 29 25  1  0     0  0
 29 32  1  6     0  0
 25 33  1  6     0  0
  9 34  1  0     0  0
M  END
> <ID>
CHEBI:145722

> <NAME>
beta-D-Galp-(1->4)-[alpha-L-Rhap-(1->3)]-beta-D-Glcp-OMe

> <DEFINITION>
A methyl glycoside that is β-D-Galp-(1→4)-[α-L-Rhap-(1→3)]-β-D-Glcp (RhaLac) in which the hydroxy group at the reducing-end anomeric centre is methylated.

> <STAR>
3

> <SYNONYM>
RhaLecOMe; Rhaalpha1-3(Galbeta1-4)GlcbetaOMe; methyl beta-D-galactosyl-(1->4)-[alpha-L-rhamnosyl-(1->3)]-beta-D-glucoside; methyl alpha-L-rhamnosyl-(1->3)-[beta-D-galactosyl-(1->4)]-beta-D-glucoside; methyl 6-deoxy-alpha-L-mannopyranosyl-(1->3)-[beta-D-galactopyranosyl-(1->4)]-beta-D-glucopyranoside; Galbeta1-4(Rhaalpha1-3)GlcbetaOMe; beta-D-Gal-(1->4)-[alpha-L-Rha-(1->3)]-beta-D-Glc-OMe; alpha-L-Rha-(1->3)-[beta-D-Gal-(1->4)]-beta-D-Glc-OMe

> <IUPAC_NAME>
methyl beta-D-galactopyranosyl-(1->4)-[alpha-L-rhamnopyranosyl-(1->3)]-beta-D-glucopyranoside

> <FORMULA>
C19H34O15

> <MASS>
502.466

> <MONOISOTOPIC_MASS>
502.18977

> <CHARGE>
0

> <SMILES>
[C@H]1([C@H]([C@@H](O[C@@H]([C@H]1O[C@@H]2O[C@@H]([C@H](O)[C@H](O)[C@H]2O)CO)CO)OC)O)O[C@@H]3O[C@H]([C@H]([C@H]([C@@H]3O)O)O)C

> <INCHI>
InChI=1S/C19H34O15/c1-5-8(22)10(24)12(26)18(30-5)34-16-14(28)17(29-2)32-7(4-21)15(16)33-19-13(27)11(25)9(23)6(3-20)31-19/h5-28H,3-4H2,1-2H3/t5-,6+,7+,8+,9-,10+,11-,12-,13+,14+,15+,16+,17+,18-,19-/m0/s1

> <INCHIKEY>
GBDWIAVDDMWLHJ-MGMZYGBUSA-N

> <PUBMED_CITATION>
31666308

$$$$

Ketcher 02122013172D 1   1.00000     0.00000     0

 31 36  0     1  0            999 V2000
   23.9946  -75.9459    0.0000 C   0  0  0  0  0  0  0  0  0  0  0  0
   23.9946  -76.9279    0.0000 C   0  0  0  0  0  0  0  0  0  0  0  0
   23.1440  -75.4548    0.0000 C   0  0  0  0  0  0  0  0  0  0  0  0
   23.1440  -77.4190    0.0000 C   0  0  0  0  0  0  0  0  0  0  0  0
   22.2935  -75.9459    0.0000 C   0  0  0  0  0  0  0  0  0  0  0  0
   22.2935  -76.9279    0.0000 C   0  0  0  0  0  0  0  0  0  0  0  0
   25.6957  -75.9459    0.0000 C   0  0  0  0  0  0  0  0  0  0  0  0
   25.6957  -76.9279    0.0000 C   0  0  0  0  0  0  0  0  0  0  0  0
   24.8451  -75.4548    0.0000 C   0  0  0  0  0  0  0  0  0  0  0  0
   24.8451  -77.4190    0.0000 C   0  0  0  0  0  0  0  0  0  0  0  0
   26.5462  -74.4727    0.0000 C   0  0  0  0  0  0  0  0  0  0  0  0
   26.5462  -75.4548    0.0000 C   0  0  0  0  0  0  0  0  0  0  0  0
   25.6957  -73.9817    0.0000 C   0  0  0  0  0  0  0  0  0  0  0  0
   24.8452  -74.4727    0.0000 C   0  0  0  0  0  0  0  0  0  0  0  0
   27.4802  -74.1692    0.0000 C   0  0  0  0  0  0  0  0  0  0  0  0
   28.0575  -74.9638    0.0000 C   0  0  0  0  0  0  0  0  0  0  0  0
   27.4803  -75.7583    0.0000 C   0  0  0  0  0  0  0  0  0  0  0  0
   27.7837  -73.2353    0.0000 C   0  0  0  0  0  0  0  0  0  0  0  0
   27.1266  -72.5055    0.0000 C   0  0  0  0  0  0  0  0  0  0  0  0
   28.7443  -73.0311    0.0000 C   0  0  0  0  0  0  0  0  0  0  0  0
   27.4301  -71.5714    0.0000 O   0  0  0  0  0  0  0  0  0  0  0  0
   29.0478  -72.0971    0.0000 C   0  0  0  0  0  0  0  0  0  0  0  0
   28.3907  -71.3673    0.0000 C   0  0  0  0  0  0  0  0  0  0  0  0
   21.4430  -77.4190    0.0000 O   0  0  0  0  0  0  0  0  0  0  0  0
   23.9906  -78.2473    0.0000 O   0  0  0  0  0  0  0  0  0  0  0  0
   23.9960  -74.5910    0.0000 C   0  0  0  0  0  0  0  0  0  0  0  0
   24.8479  -76.1766    0.0000 H   0  0  0  0  0  0  0  0  0  0  0  0
   25.6998  -74.9934    0.0000 H   0  0  0  0  0  0  0  0  0  0  0  0
   26.5518  -73.2185    0.0000 C   0  0  0  0  0  0  0  0  0  0  0  0
   26.6938  -76.3659    0.0000 O   0  0  0  0  0  0  0  0  0  0  0  0
   28.6943  -70.4333    0.0000 O   0  0  0  0  0  0  0  0  0  0  0  0
  1  3  1  0     0  0
  2  4  1  0     0  0
  3  5  1  0     0  0
  4  6  1  0     0  0
  5  6  1  0     0  0
  7  8  1  0     0  0
  8 10  1  0     0  0
  9  1  1  0     0  0
 10  2  1  0     0  0
  1  2  1  0     0  0
 11 13  1  0     0  0
 12  7  1  0     0  0
 13 14  1  0     0  0
  7  9  1  0     0  0
 14  9  1  0     0  0
 11 15  1  0     0  0
 11 12  1  0     0  0
 15 16  1  0     0  0
 12 17  1  0     0  0
 16 17  1  0     0  0
 18 19  2  0     0  0
 18 20  1  0     0  0
 19 21  1  0     0  0
 20 22  2  0     0  0
 21 23  1  0     0  0
 22 23  1  0     0  0
 15 18  1  1     0  0
  6 24  1  1     0  0
  2 25  1  1     0  0
  1 26  1  1     0  0
  9 27  1  6     0  0
  7 28  1  1     0  0
 11 29  1  1     0  0
 12 30  1  1     0  0
 17 30  1  1     0  0
 23 31  2  0     0  0
M  END
> <ID>
CHEBI:146151

> <NAME>
marinobufagenin

> <DEFINITION>
A cardiotonic steroid secreted by the toad Bufo rubescens and other related species such as Bufo marinus. An endogenous Na/K-ATPase inhibitor, it is a vasoconstrictor with effects similar to digitalis.

> <STAR>
3

> <SYNONYM>
MBG; Marinobufagin; (3beta,5beta,14alpha,15beta)-3,5-dihydroxy-14,15-epoxybufa-20,22-dienolide

> <IUPAC_NAME>
3beta,5-dihydroxy-5beta,15beta-14,15-epoxybufa-20,22-dienolide

> <FORMULA>
C24H32O5

> <MASS>
400.515

> <MONOISOTOPIC_MASS>
400.22497

> <CHARGE>
0

> <SMILES>
[C@]12(CC[C@@H](C[C@]2(CC[C@]3([C@]45[C@](CC[C@]13[H])([C@H](C[C@H]4O5)C6=COC(C=C6)=O)C)[H])O)O)C

> <INCHI>
InChI=1S/C24H32O5/c1-21-8-5-15(25)12-23(21,27)10-7-17-16(21)6-9-22(2)18(11-19-24(17,22)29-19)14-3-4-20(26)28-13-14/h3-4,13,15-19,25,27H,5-12H2,1-2H3/t15-,16-,17+,18+,19+,21+,22+,23-,24+/m0/s1

> <INCHIKEY>
JMNQTHQLNRILMH-OBBGIPBRSA-N

> <CAS_REGISTRY_NUMBER>
470-42-8

> <CHEMIDPLUS>
470-42-8

> <PDBECHEM_ACCESSION>
P4S

> <WIKIPEDIA_ACCESSION>
Marinobufagenin

> <PUBMED_CITATION>
11877366; 15804527; 29853035; 29993282; 30382957; 30817774; 31236418; 31879340

$$$$

Ketcher 10082015492D 1   1.00000     0.00000     0

 26 29  0     1  0            999 V2000
   10.8814  -20.0279    0.0000 C   0  0  0  0  0  0  0  0  0  0  0  0
   11.2889  -19.2732    0.0000 O   0  0  0  0  0  0  0  0  0  0  0  0
   12.0124  -20.0135    0.0000 C   0  0  0  0  0  0  0  0  0  0  0  0
   11.1917  -20.4802    0.0000 C   0  0  0  0  0  0  0  0  0  0  0  0
   12.0166  -19.0589    0.0000 C   0  0  0  0  0  0  0  0  0  0  0  0
   10.3739  -20.0051    0.0000 C   0  0  0  0  0  0  0  0  0  0  0  0
   12.9846  -20.4854    0.0000 C   0  0  0  0  0  0  0  0  0  0  0  0
   11.1835  -21.4222    0.0000 C   0  0  0  0  0  0  0  0  0  0  0  0
   11.2002  -18.5789    0.0000 O   0  0  0  0  0  0  0  0  0  0  0  0
   12.9627  -19.0589    0.0000 C   0  0  0  0  0  0  0  0  0  0  0  0
   10.3781  -19.0506    0.0000 C   0  0  0  0  0  0  0  0  0  0  0  0
    9.5567  -20.4762    0.0000 C   0  0  0  0  0  0  0  0  0  0  0  0
   10.6247  -20.9775    0.0000 C   0  0  0  0  0  0  0  0  0  0  0  0
   13.6390  -18.3825    0.0000 O   0  0  0  0  0  0  0  0  0  0  0  0
    9.5567  -18.5745    0.0000 C   0  0  0  0  0  0  0  0  0  0  0  0
    8.7364  -20.0051    0.0000 C   0  0  0  0  0  0  0  0  0  0  0  0
    8.8729  -21.1472    0.0000 O   0  0  0  0  0  0  0  0  0  0  0  0
   10.1841  -21.7135    0.0000 O   0  0  0  0  0  0  0  0  0  0  0  0
    8.7364  -19.0506    0.0000 C   0  0  0  0  0  0  0  0  0  0  0  0
    7.9101  -20.4762    0.0000 O   0  0  0  0  0  0  0  0  0  0  0  0
    7.9101  -18.5745    0.0000 C   0  0  0  0  0  0  0  0  0  0  0  0
   12.0082  -18.1036    0.0000 H   0  0  0  0  0  0  0  0  0  0  0  0
   10.3697  -18.0994    0.0000 H   0  0  0  0  0  0  0  0  0  0  0  0
   10.6452  -22.5422    0.0000 C   0  0  0  0  0  0  0  0  0  0  0  0
   11.5934  -22.5573    0.0000 O   0  0  0  0  0  0  0  0  0  0  0  0
   10.1581  -23.3559    0.0000 C   0  0  0  0  0  0  0  0  0  0  0  0
  1  2  1  0     0  0
  3  4  1  0     0  0
  3  5  1  0     0  0
  3  2  1  1     0  0
  4  6  1  0     0  0
  4  7  1  0     0  0
  4  8  1  1     0  0
  5  9  1  0     0  0
  5 10  1  0     0  0
  6 11  1  0     0  0
  6 12  1  0     0  0
  6 13  1  6     0  0
 10 14  1  6     0  0
 11 15  1  0     0  0
 12 16  1  0     0  0
 12 17  1  6     0  0
 13 18  1  0     0  0
 15 19  2  0     0  0
 16 20  2  0     0  0
 19 21  1  0     0  0
  7 10  1  0     0  0
  9 11  1  0     0  0
 16 19  1  0     0  0
  5 22  1  1     0  0
 11 23  1  6     0  0
  3  1  1  0     0  0
 24 25  2  0     0  0
 24 26  1  0     0  0
 18 24  1  0     0  0
M  END
> <ID>
CHEBI:146194

> <NAME>
15-acetyldeoxynivalenol

> <DEFINITION>
A trichothecene mycotoxin that is deoxynivalenol acetylated on the oxygen at C-15. A skin and eye irritant, along with its 3-acetyl regioisomer and its parent deoxynivalenol it is considered among the most commonly and widely distributed cereal contaminants.

> <STAR>
3

> <SYNONYM>
15-ADON; 15-acetyl-DON; 15-acetyl-deoxynivalenol; 15-AcDON; 15-(acetyloxy)-12,13-epoxy-3alpha,7alpha-dihydroxytrichothec-9-en-8-one; (3alpha,7alpha)-15-(acetyloxy)-12,13-epoxy-3,7-dihydroxytrichothec-9-en-8-one

> <IUPAC_NAME>
3alpha,7alpha-dihydroxy-8-oxo-12,13-epoxytrichothec-9-en-15-yl acetate

> <FORMULA>
C17H22O7

> <MASS>
338.356

> <MONOISOTOPIC_MASS>
338.13655

> <CHARGE>
0

> <SMILES>
[H][C@@]12O[C@]3([H])C=C(C)C(=O)[C@@H](O)[C@]3(COC(C)=O)[C@@](C)(C[C@H]1O)[C@]21CO1

> <INCHI>
InChI=1S/C17H22O7/c1-8-4-11-16(6-22-9(2)18,13(21)12(8)20)15(3)5-10(19)14(24-11)17(15)7-23-17/h4,10-11,13-14,19,21H,5-7H2,1-3H3/t10-,11-,13-,14-,15-,16-,17+/m1/s1

> <INCHIKEY>
IDGRYIRJIFKTAN-HTJQZXIKSA-N

> <CAS_REGISTRY_NUMBER>
88337-96-6

> <CHEMIDPLUS>
88337-96-6

> <HMDB_ACCESSION>
HMDB0033444

> <METACYC_ACCESSION>
CPD-18420

> <AGRICOLA_CITATION>
IND20402870; IND45257683

> <PUBMED_CITATION>
11510664; 16684095; 18632156; 19330088; 19783651; 21204935; 21216300; 22367943; 22465835; 22997060; 23470877; 23605932; 23792671; 24283539; 24385417; 25772259; 26274975; 26343882; 27131905; 27483321; 29914486; 30806951; 32229167; 3692388; 3840229

$$$$

Ketcher 10082015512D 1   1.00000     0.00000     0

 26 29  0     1  0            999 V2000
   13.9772   -8.8516    0.0000 C   0  0  0  0  0  0  0  0  0  0  0  0
   14.3848   -8.0970    0.0000 O   0  0  0  0  0  0  0  0  0  0  0  0
   15.1082   -8.8374    0.0000 C   0  0  0  0  0  0  0  0  0  0  0  0
   14.2876   -9.3040    0.0000 C   0  0  0  0  0  0  0  0  0  0  0  0
   15.1124   -7.8827    0.0000 C   0  0  0  0  0  0  0  0  0  0  0  0
   13.4697   -8.8289    0.0000 C   0  0  0  0  0  0  0  0  0  0  0  0
   16.0805   -9.3091    0.0000 C   0  0  0  0  0  0  0  0  0  0  0  0
   14.2793  -10.2460    0.0000 C   0  0  0  0  0  0  0  0  0  0  0  0
   14.2961   -7.4027    0.0000 O   0  0  0  0  0  0  0  0  0  0  0  0
   16.0585   -7.8827    0.0000 C   0  0  0  0  0  0  0  0  0  0  0  0
   13.4739   -7.8744    0.0000 C   0  0  0  0  0  0  0  0  0  0  0  0
   12.6525   -9.2999    0.0000 C   0  0  0  0  0  0  0  0  0  0  0  0
   13.7206   -9.8013    0.0000 C   0  0  0  0  0  0  0  0  0  0  0  0
   16.7349   -7.2063    0.0000 O   0  0  0  0  0  0  0  0  0  0  0  0
   12.6525   -7.3984    0.0000 C   0  0  0  0  0  0  0  0  0  0  0  0
   11.8321   -8.8289    0.0000 C   0  0  0  0  0  0  0  0  0  0  0  0
   11.9687   -9.9711    0.0000 O   0  0  0  0  0  0  0  0  0  0  0  0
   13.2800  -10.5373    0.0000 O   0  0  0  0  0  0  0  0  0  0  0  0
   11.8321   -7.8744    0.0000 C   0  0  0  0  0  0  0  0  0  0  0  0
   11.0059   -9.2999    0.0000 O   0  0  0  0  0  0  0  0  0  0  0  0
   11.0059   -7.3984    0.0000 C   0  0  0  0  0  0  0  0  0  0  0  0
   15.1040   -6.9273    0.0000 H   0  0  0  0  0  0  0  0  0  0  0  0
   13.4655   -6.9232    0.0000 H   0  0  0  0  0  0  0  0  0  0  0  0
   17.6509   -7.4517    0.0000 C   0  0  0  0  0  0  0  0  0  0  0  0
   18.3215   -6.7811    0.0000 O   0  0  0  0  0  0  0  0  0  0  0  0
   17.8964   -8.3678    0.0000 C   0  0  0  0  0  0  0  0  0  0  0  0
  1  2  1  0     0  0
  3  4  1  0     0  0
  3  5  1  0     0  0
  3  2  1  1     0  0
  4  6  1  0     0  0
  4  7  1  0     0  0
  4  8  1  1     0  0
  5  9  1  0     0  0
  5 10  1  0     0  0
  6 11  1  0     0  0
  6 12  1  0     0  0
  6 13  1  6     0  0
 10 14  1  6     0  0
 11 15  1  0     0  0
 12 16  1  0     0  0
 12 17  1  6     0  0
 13 18  1  0     0  0
 15 19  2  0     0  0
 16 20  2  0     0  0
 19 21  1  0     0  0
  7 10  1  0     0  0
  9 11  1  0     0  0
 16 19  1  0     0  0
  5 22  1  1     0  0
 11 23  1  6     0  0
  3  1  1  0     0  0
 24 25  2  0     0  0
 24 26  1  0     0  0
 14 24  1  0     0  0
M  END
> <ID>
CHEBI:146195

> <NAME>
3-acetyldeoxynivalenol

> <DEFINITION>
A trichothecene mycotoxin that is deoxynivalenol acetylated on the oxygen at C-3. A skin and eye irritant, along with its 15-acetyl regioisomer and its parent deoxynivalenol it is considered among the most commonly and widely distributed cereal contaminants.

> <STAR>
3

> <SYNONYM>
3-acetyl-DON; 3-acetyl-deoxynivalenol; 3-acetyl don; 3-(acetyloxy)-12,13-epoxy-7alpha,15alpha-dihydroxytrichothec-9-en-8-one; 15-ADON; (3alpha,7alpha)-3-(acetyloxy)-12,13-epoxy-7,15-dihydroxytrichothec-9-en-8-one

> <IUPAC_NAME>
7alpha,15-dihydroxy-8-oxo-12,13-epoxytrichothec-9-en-3alpha-yl acetate

> <FORMULA>
C17H22O7

> <MASS>
338.356

> <MONOISOTOPIC_MASS>
338.13655

> <CHARGE>
0

> <SMILES>
[H][C@@]12O[C@]3([H])C=C(C)C(=O)[C@@H](O)[C@]3(CO)[C@@](C)(C[C@H]1OC(C)=O)[C@]21CO1

> <INCHI>
InChI=1S/C17H22O7/c1-8-4-11-16(6-18,13(21)12(8)20)15(3)5-10(23-9(2)19)14(24-11)17(15)7-22-17/h4,10-11,13-14,18,21H,5-7H2,1-3H3/t10-,11-,13-,14-,15-,16-,17+/m1/s1

> <INCHIKEY>
ADFIQZBYNGPCGY-HTJQZXIKSA-N

> <CAS_REGISTRY_NUMBER>
50722-38-8

> <CHEMIDPLUS>
50722-38-8

> <HMDB_ACCESSION>
HMDB0036137

> <METACYC_ACCESSION>
CPD-18419

> <AGRICOLA_CITATION>
IND45257683

> <PUBMED_CITATION>
11510664; 14620907; 16521158; 21204935; 22016651; 22367943; 22465835; 22997060; 23025486; 23470877; 23605932; 23792671; 24385417; 25772259; 26274975; 26343882; 27131905; 27483321; 29914486; 30806951; 31442898; 32454357

$$$$

Marvin  06150712542D          

  4  3  0  0  0  0            999 V2000
    0.0000    0.8250    0.0000 O   0  0  0  0  0  0  0  0  0  0  0  0
    0.0000    0.0000    0.0000 C   0  0  0  0  0  0  0  0  0  0  0  0
   -0.7145   -0.4125    0.0000 C   0  0  0  0  0  0  0  0  0  0  0  0
    0.7145   -0.4125    0.0000 H   0  0  0  0  0  0  0  0  0  0  0  0
  2  1  2  0  0  0  0
  3  2  1  0  0  0  0
  2  4  1  0  0  0  0
M  END
> <ID>
CHEBI:15343

> <NAME>
acetaldehyde

> <DEFINITION>
The aldehyde formed from acetic acid by reduction of the carboxy group. It is the most abundant carcinogen in tobacco smoke.

> <STAR>
3

> <SECONDARY_ID>
CHEBI:40533; CHEBI:2383; CHEBI:13703; CHEBI:22158

> <SYNONYM>
ethyl aldehyde; Ethanal; Azetaldehyd; acetic aldehyde; acetaldehydes; acetaldehyde; ACETALDEHYDE; Acetaldehyde; Acetaldehyd

> <IUPAC_NAME>
acetaldehyde

> <FORMULA>
C2H4O

> <MASS>
44.05256

> <MONOISOTOPIC_MASS>
44.02621

> <CHARGE>
0

> <SMILES>
[H]C(C)=O

> <INCHI>
InChI=1S/C2H4O/c1-2-3/h2H,1H3

> <INCHIKEY>
IKHGUXGNUITLKF-UHFFFAOYSA-N

> <BEILSTEIN_REGISTRY_NUMBER>
505984

> <CAS_REGISTRY_NUMBER>
75-07-0

> <GMELIN_REGISTRY_NUMBER>
779

> <REAXYS_REGISTRY_NUMBER>
505984

> <CHEMIDPLUS>
75-07-0

> <HMDB_ACCESSION>
HMDB0000990

> <KEGG_COMPOUND_ACCESSION>
C00084

> <KNAPSACK_ACCESSION>
C00007392

> <LINCS_ACCESSION>
LSM-37193

> <NIST_CHEMISTRY_WEBBOOK>
75-07-0

> <PDBECHEM_ACCESSION>
ACE

> <WIKIPEDIA_ACCESSION>
Acetaldehyde

> <PUBMED_CITATION>
11058591; 110589; 11087437; 11290854; 15239123; 15833031; 16404561; 16485909; 18001279; 19396661; 2233695; 24282063; 24326678; 24503565; 4239189; 5526694; 6036728; 7163973; 9171333

$$$$

Marvin  02240616392D          

 10  9  0  0  0  0            999 V2000
   -0.2682    0.1722    0.0000 C   0  0  0  0  0  0  0  0  0  0  0  0
    1.1608    0.1722    0.0000 N   0  3  3  0  0  0  0  0  0  0  0  0
   -0.9826   -0.2403    0.0000 O   0  0  0  0  0  0  0  0  0  0  0  0
   -1.6971    0.1722    0.0000 C   0  0  0  0  0  0  0  0  0  0  0  0
   -1.6971    0.9972    0.0000 O   0  0  0  0  0  0  0  0  0  0  0  0
   -2.4116   -0.2403    0.0000 C   0  0  0  0  0  0  0  0  0  0  0  0
    1.5733   -0.5422    0.0000 C   0  0  0  0  0  0  0  0  0  0  0  0
    0.7483    0.8867    0.0000 C   0  0  0  0  0  0  0  0  0  0  0  0
    1.8752    0.5847    0.0000 C   0  0  0  0  0  0  0  0  0  0  0  0
    0.4463   -0.2403    0.0000 C   0  0  0  0  0  0  0  0  0  0  0  0
  1 10  1  0  0  0  0
  2 10  1  0  0  0  0
  3  1  1  0  0  0  0
  7  2  1  0  0  0  0
  8  2  1  0  0  0  0
  9  2  1  0  0  0  0
  4  3  1  0  0  0  0
  5  4  2  0  0  0  0
  6  4  1  0  0  0  0
M  CHG  1   2   1
M  END
> <ID>
CHEBI:15355

> <NAME>
acetylcholine

> <DEFINITION>
Actylcholine is an ester of acetic acid and choline, which acts as a neurotransmitter.

> <STAR>
3

> <SECONDARY_ID>
CHEBI:40559; CHEBI:2416; CHEBI:12686; CHEBI:13715; CHEBI:22197

> <SYNONYM>
O-Acetylcholine; choline acetate; Azetylcholin; ACh; acetylcholine; ACETYLCHOLINE; Acetylcholine

> <IUPAC_NAME>
2-acetyloxy-N,N,N-trimethylethanaminium

> <FORMULA>
C7H16NO2

> <MASS>
146.20748

> <MONOISOTOPIC_MASS>
146.11756

> <CHARGE>
1

> <SMILES>
CC(=O)OCC[N+](C)(C)C

> <INCHI>
InChI=1S/C7H16NO2/c1-7(9)10-6-5-8(2,3)4/h5-6H2,1-4H3/q+1

> <INCHIKEY>
OIPILFWXSMYKGL-UHFFFAOYSA-N

> <BEILSTEIN_REGISTRY_NUMBER>
1764436

> <CAS_REGISTRY_NUMBER>
51-84-3

> <GMELIN_REGISTRY_NUMBER>
326108

> <CHEMIDPLUS>
51-84-3

> <DRUGBANK_ACCESSION>
DB03128

> <KEGG_COMPOUND_ACCESSION>
C01996

> <LINCS_ACCESSION>
LSM-5888

> <PDBECHEM_ACCESSION>
ACH

> <WIKIPEDIA_ACCESSION>
Acetylcholine

> <PUBMED_CITATION>
14764638; 15014918; 15231705; 15361288; 18050502; 18407448; 19255787; 20963497; 21130809; 21246223; 21545631; 21601579

$$$$

Marvin  01110611002D          

  7  6  0  0  0  0            999 V2000
    0.6124    0.2357    0.0000 C   0  0  0  0  0  0  0  0  0  0  0  0
   -0.1021   -0.1768    0.0000 C   0  0  3  0  0  0  0  0  0  0  0  0
   -0.8165    0.2357    0.0000 C   0  0  0  0  0  0  0  0  0  0  0  0
    1.3269   -0.1768    0.0000 O   0  0  0  0  0  0  0  0  0  0  0  0
    0.6124    1.0607    0.0000 O   0  0  0  0  0  0  0  0  0  0  0  0
   -0.1021   -1.0018    0.0000 N   0  0  0  0  0  0  0  0  0  0  0  0
   -1.5310   -0.1768    0.0000 S   0  0  0  0  0  0  0  0  0  0  0  0
  2  1  1  0  0  0  0
  5  1  2  0  0  0  0
  4  1  1  0  0  0  0
  3  2  1  0  0  0  0
  6  2  1  0  0  0  0
  7  3  1  0  0  0  0
M  END
> <ID>
CHEBI:15356

> <NAME>
cysteine

> <DEFINITION>
A sulfur-containing amino acid that is propanoic acid with an amino group at position 2 and a sulfanyl group at position 3.

> <STAR>
3

> <SECONDARY_ID>
CHEBI:23508; CHEBI:4050; CHEBI:14061

> <SYNONYM>
Zystein; Hcys; cysteine; Cysteine; Cystein; Cys; cisteina; C; 2-amino-3-sulfanylpropanoic acid; 2-Amino-3-mercaptopropionic acid; 2-amino-3-mercaptopropanoic acid

> <IUPAC_NAME>
cysteine

> <FORMULA>
C3H7NO2S

> <MASS>
121.15922

> <MONOISOTOPIC_MASS>
121.01975

> <CHARGE>
0

> <SMILES>
NC(CS)C(O)=O

> <INCHI>
InChI=1S/C3H7NO2S/c4-2(1-7)3(5)6/h2,7H,1,4H2,(H,5,6)

> <INCHIKEY>
XUJNEKJLAYXESH-UHFFFAOYSA-N

> <BEILSTEIN_REGISTRY_NUMBER>
1721406

> <CAS_REGISTRY_NUMBER>
3374-22-9

> <GMELIN_REGISTRY_NUMBER>
2933

> <REAXYS_REGISTRY_NUMBER>
1721406

> <CHEMIDPLUS>
3374-22-9

> <KEGG_COMPOUND_ACCESSION>
C00736

> <KNAPSACK_ACCESSION>
C00007323

> <NIST_CHEMISTRY_WEBBOOK>
3374-22-9

> <WIKIPEDIA_ACCESSION>
Cysteine

> <PUBMED_CITATION>
17439666; 25181601

$$$$

Marvin  01220711372D          

 31 33  0  0  1  0            999 V2000
    2.8984    5.6343    0.0000 N   0  0  0  0  0  0  0  0  0  0  0  0
    2.8984    4.8093    0.0000 C   0  0  0  0  0  0  0  0  0  0  0  0
    2.1839    4.3968    0.0000 N   0  0  0  0  0  0  0  0  0  0  0  0
    2.1838    3.5718    0.0000 C   0  0  0  0  0  0  0  0  0  0  0  0
    2.8983    3.1593    0.0000 N   0  0  0  0  0  0  0  0  0  0  0  0
    3.6128    3.5718    0.0000 C   0  0  0  0  0  0  0  0  0  0  0  0
    3.6128    4.3968    0.0000 C   0  0  0  0  0  0  0  0  0  0  0  0
    4.3974    4.6517    0.0000 N   0  0  0  0  0  0  0  0  0  0  0  0
    4.8824    3.9842    0.0000 C   0  0  0  0  0  0  0  0  0  0  0  0
    4.3974    3.3168    0.0000 N   0  0  0  0  0  0  0  0  0  0  0  0
    4.6524    2.5320    0.0000 C   0  0  2  0  0  0  0  0  0  0  0  0
    4.1674    1.8647    0.0000 O   0  0  0  0  0  0  0  0  0  0  0  0
    4.6523    1.1971    0.0000 C   0  0  1  0  0  0  0  0  0  0  0  0
    5.4369    1.4521    0.0000 C   0  0  1  0  0  0  0  0  0  0  0  0
    6.1044    0.9671    0.0000 O   0  0  0  0  0  0  0  0  0  0  0  0
    5.4370    2.2771    0.0000 C   0  0  1  0  0  0  0  0  0  0  0  0
    6.1044    2.7620    0.0000 O   0  0  0  0  0  0  0  0  0  0  0  0
    3.5723    0.4125    0.0000 O   0  0  0  0  0  0  0  0  0  0  0  0
    2.8578   -0.8250    0.0000 O   0  0  0  0  0  0  0  0  0  0  0  0
    2.8578    0.0000    0.0000 P   0  0  3  0  0  0  0  0  0  0  0  0
    2.8578    0.8250    0.0000 O   0  0  0  0  0  0  0  0  0  0  0  0
    2.1434    0.4125    0.0000 O   0  0  0  0  0  0  0  0  0  0  0  0
    1.4289   -0.8250    0.0000 O   0  0  0  0  0  0  0  0  0  0  0  0
    1.4289    0.0000    0.0000 P   0  0  3  0  0  0  0  0  0  0  0  0
    1.4289    0.8447    0.0000 O   0  0  0  0  0  0  0  0  0  0  0  0
    0.7144    0.4125    0.0000 O   0  0  0  0  0  0  0  0  0  0  0  0
    0.0000   -0.8250    0.0000 O   0  0  0  0  0  0  0  0  0  0  0  0
   -0.7145    0.4125    0.0000 O   0  0  0  0  0  0  0  0  0  0  0  0
    0.0000    0.0000    0.0000 P   0  0  3  0  0  0  0  0  0  0  0  0
    0.0000    0.8250    0.0000 O   0  0  0  0  0  0  0  0  0  0  0  0
    4.3973    0.4125    0.0000 C   0  0  0  0  0  0  0  0  0  0  0  0
  1  2  1  0  0  0  0
  2  3  2  0  0  0  0
  2  7  1  0  0  0  0
  3  4  1  0  0  0  0
  4  5  2  0  0  0  0
  5  6  1  0  0  0  0
  6  7  2  0  0  0  0
  6 10  1  0  0  0  0
  7  8  1  0  0  0  0
  8  9  2  0  0  0  0
  9 10  1  0  0  0  0
 11 10  1  1  0  0  0
 11 12  1  0  0  0  0
 11 16  1  0  0  0  0
 12 13  1  0  0  0  0
 13 31  1  1  0  0  0
 13 14  1  0  0  0  0
 14 15  1  6  0  0  0
 14 16  1  0  0  0  0
 16 17  1  6  0  0  0
 18 20  1  0  0  0  0
 20 19  2  0  0  0  0
 20 22  1  0  0  0  0
 20 21  1  0  0  0  0
 22 24  1  0  0  0  0
 24 23  2  0  0  0  0
 24 26  1  0  0  0  0
 24 25  1  0  0  0  0
 26 29  1  0  0  0  0
 29 27  2  0  0  0  0
 29 28  1  0  0  0  0
 29 30  1  0  0  0  0
 31 18  1  0  0  0  0
M  END
> <ID>
CHEBI:15422

> <NAME>
ATP

> <DEFINITION>
An adenosine 5'-phosphate in which the 5'-phosphate is a triphosphate group. It is involved in the transportation of chemical energy during metabolic pathways.

> <STAR>
3

> <SECONDARY_ID>
CHEBI:40938; CHEBI:10841; CHEBI:10789; CHEBI:2359; CHEBI:13236; CHEBI:22249

> <SYNONYM>
H4atp; ATP; ADENOSINE-5'-TRIPHOSPHATE; Adenosine triphosphate; Adenosine 5'-triphosphate

> <IUPAC_NAME>
adenosine 5'-(tetrahydrogen triphosphate)

> <BRAND_NAME>
Triphosphaden; Triadenyl; Myotriphos; Glucobasin; Fosfobion; Cardenosine; Atriphos; Atipi; Adynol; Adetol; Adephos

> <FORMULA>
C10H16N5O13P3

> <MASS>
507.18100

> <MONOISOTOPIC_MASS>
506.99575

> <CHARGE>
0

> <SMILES>
Nc1ncnc2n(cnc12)[C@@H]1O[C@H](COP(O)(=O)OP(O)(=O)OP(O)(O)=O)[C@@H](O)[C@H]1O

> <INCHI>
InChI=1S/C10H16N5O13P3/c11-8-5-9(13-2-12-8)15(3-14-5)10-7(17)6(16)4(26-10)1-25-30(21,22)28-31(23,24)27-29(18,19)20/h2-4,6-7,10,16-17H,1H2,(H,21,22)(H,23,24)(H2,11,12,13)(H2,18,19,20)/t4-,6-,7-,10-/m1/s1

> <INCHIKEY>
ZKHQWZAMYRWXGA-KQYNXXCUSA-N

> <BEILSTEIN_REGISTRY_NUMBER>
73010

> <CAS_REGISTRY_NUMBER>
56-65-5

> <GMELIN_REGISTRY_NUMBER>
34857

> <REAXYS_REGISTRY_NUMBER>
73010

> <CHEMIDPLUS>
56-65-5

> <DRUGBANK_ACCESSION>
DB00171

> <HMDB_ACCESSION>
HMDB0000538

> <KEGG_COMPOUND_ACCESSION>
C00002

> <KEGG_DRUG_ACCESSION>
D08646

> <KNAPSACK_ACCESSION>
C00001491

> <PDBECHEM_ACCESSION>
ATP

> <WIKIPEDIA_ACCESSION>
Adenosine_triphosphate

$$$$

Marvin  06300615062D          

 42 46  0  0  0  0            999 V2000
   -1.6487    0.7096    0.0000 C   0  0  0  0  0  0  0  0  0  0  0  0
   -0.7096    1.6696    0.0000 C   0  0  0  0  0  0  0  0  0  0  0  0
    0.0000    2.0870    0.0000 C   0  0  0  0  0  0  0  0  0  0  0  0
    0.7305    1.6696    0.0000 C   0  0  0  0  0  0  0  0  0  0  0  0
    1.6696    0.7096    0.0000 C   0  0  0  0  0  0  0  0  0  0  0  0
    2.0871    0.0000    0.0000 C   0  0  0  0  0  0  0  0  0  0  0  0
    1.6696   -0.7096    0.0000 C   0  0  0  0  0  0  0  0  0  0  0  0
    0.7305   -1.6697    0.0000 C   0  0  0  0  0  0  0  0  0  0  0  0
    0.0000   -2.0871    0.0000 C   0  0  0  0  0  0  0  0  0  0  0  0
   -0.7096   -1.6697    0.0000 C   0  0  0  0  0  0  0  0  0  0  0  0
   -1.6487   -0.7096    0.0000 C   0  0  0  0  0  0  0  0  0  0  0  0
   -2.0661    0.0000    0.0000 C   0  0  0  0  0  0  0  0  0  0  0  0
    0.8557    0.8557    0.0000 N   0  0  0  0  0  0  0  0  0  0  0  0
    0.8557   -0.8557    0.0000 N   0  0  0  0  0  0  0  0  0  0  0  0
   -0.8348   -0.8557    0.0000 N   0  0  0  0  0  0  0  0  0  0  0  0
   -2.0244    1.4609    0.0000 C   0  0  0  0  0  0  0  0  0  0  0  0
   -2.8213    1.6744    0.0000 C   0  0  0  0  0  0  0  0  0  0  0  0
    1.4610    2.0453    0.0000 C   0  0  0  0  0  0  0  0  0  0  0  0
    1.6745    2.8422    0.0000 C   0  0  0  0  0  0  0  0  0  0  0  0
    2.0662   -1.4609    0.0000 C   0  0  0  0  0  0  0  0  0  0  0  0
    2.8630   -1.6744    0.0000 C   0  0  0  0  0  0  0  0  0  0  0  0
   -2.0244   -1.4609    0.0000 C   0  0  0  0  0  0  0  0  0  0  0  0
   -2.8213   -1.6744    0.0000 C   0  0  0  0  0  0  0  0  0  0  0  0
   -1.4400    2.0453    0.0000 C   0  0  0  0  0  0  0  0  0  0  0  0
   -1.6535    2.8422    0.0000 C   0  0  0  0  0  0  0  0  0  0  0  0
   -2.4504    3.0557    0.0000 C   0  0  0  0  0  0  0  0  0  0  0  0
    2.0662    1.4609    0.0000 C   0  0  0  0  0  0  0  0  0  0  0  0
    2.8630    1.6744    0.0000 C   0  0  0  0  0  0  0  0  0  0  0  0
    3.0765    2.4713    0.0000 C   0  0  0  0  0  0  0  0  0  0  0  0
   -1.4400   -2.0453    0.0000 C   0  0  0  0  0  0  0  0  0  0  0  0
   -1.6535   -2.8422    0.0000 C   0  0  0  0  0  0  0  0  0  0  0  0
   -2.4504   -3.0557    0.0000 C   0  0  0  0  0  0  0  0  0  0  0  0
    1.4610   -2.0453    0.0000 C   0  0  0  0  0  0  0  0  0  0  0  0
    1.6745   -2.8422    0.0000 C   0  0  0  0  0  0  0  0  0  0  0  0
    2.4714   -3.0557    0.0000 C   0  0  0  0  0  0  0  0  0  0  0  0
   -3.4608   -4.0661    0.0000 O   0  0  0  0  0  0  0  0  0  0  0  0
   -2.6639   -3.8526    0.0000 C   0  0  0  0  0  0  0  0  0  0  0  0
   -2.0806   -4.4360    0.0000 O   0  0  0  0  0  0  0  0  0  0  0  0
    2.1016   -4.4360    0.0000 O   0  0  0  0  0  0  0  0  0  0  0  0
    2.6848   -3.8526    0.0000 C   0  0  0  0  0  0  0  0  0  0  0  0
    3.4817   -4.0661    0.0000 O   0  0  0  0  0  0  0  0  0  0  0  0
   -0.8348    0.8557    0.0000 N   0  0  0  0  0  0  0  0  0  0  0  0
  1 42  1  0  0  0  0
 16  1  2  0  0  0  0
 12  1  1  0  0  0  0
  2  3  1  0  0  0  0
 42  2  1  0  0  0  0
 24  2  2  0  0  0  0
  3  4  2  0  0  0  0
  4 13  1  0  0  0  0
 18  4  1  0  0  0  0
  5  6  1  0  0  0  0
 13  5  2  0  0  0  0
 27  5  1  0  0  0  0
  6  7  2  0  0  0  0
  7 14  1  0  0  0  0
  7 20  1  0  0  0  0
  8  9  2  0  0  0  0
 33  8  1  0  0  0  0
 14  8  1  0  0  0  0
 10  9  1  0  0  0  0
 15 10  2  0  0  0  0
 30 10  1  0  0  0  0
 11 12  2  0  0  0  0
 15 11  1  0  0  0  0
 22 11  1  0  0  0  0
 24 16  1  0  0  0  0
 16 17  1  0  0  0  0
 18 27  2  0  0  0  0
 18 19  1  0  0  0  0
 20 33  2  0  0  0  0
 20 21  1  0  0  0  0
 22 30  2  0  0  0  0
 22 23  1  0  0  0  0
 24 25  1  0  0  0  0
 25 26  2  0  0  0  0
 27 28  1  0  0  0  0
 28 29  2  0  0  0  0
 30 31  1  0  0  0  0
 31 32  1  0  0  0  0
 32 37  1  0  0  0  0
 33 34  1  0  0  0  0
 34 35  1  0  0  0  0
 35 40  1  0  0  0  0
 37 36  1  0  0  0  0
 37 38  2  0  0  0  0
 40 39  1  0  0  0  0
 40 41  2  0  0  0  0
M  END
> <ID>
CHEBI:15430

> <NAME>
protoporphyrin

> <DEFINITION>
A cyclic tetrapyrrole that consists of porphyrin bearing four methyl substituents at positions 3, 8, 13 and 17, two vinyl substituents at positions 7 and 12 and two 2-carboxyethyl substituents at positions 2 and 18. The parent of the class of protoporphyrins.

> <STAR>
3

> <SECONDARY_ID>
CHEBI:14961; CHEBI:14959; CHEBI:14960; CHEBI:26358; CHEBI:8592

> <SYNONYM>
PROTOPORPHYRIN IX; Protoporphyrin IX; Protoporphyrin; Porphyrinogen IX; ooporphyrin; Kammerer's prophyrin; H2ppIX; 3,7,12,17-tetramethyl-8,13-divinylporphyrin-2,18-dipropanoic acid; 3,3'-(3,7,12,17-tetramethyl-8,13-divinyl-21H,23H-porphine-2,18-diyl)-bis-propionic acid

> <IUPAC_NAME>
7,12-diethenyl-3,8,13,17-tetramethylporphyrin-2,18-dipropanoic acid

> <FORMULA>
C34H34N4O4

> <MASS>
562.65832

> <MONOISOTOPIC_MASS>
562.25801

> <CHARGE>
0

> <SMILES>
Cc1c(CCC(O)=O)c2cc3[nH]c(cc4nc(cc5[nH]c(cc1n2)c(C)c5C=C)c(C)c4C=C)c(C)c3CCC(O)=O

> <INCHI>
InChI=1S/C34H34N4O4/c1-7-21-17(3)25-13-26-19(5)23(9-11-33(39)40)31(37-26)16-32-24(10-12-34(41)42)20(6)28(38-32)15-30-22(8-2)18(4)27(36-30)14-29(21)35-25/h7-8,13-16,35,38H,1-2,9-12H2,3-6H3,(H,39,40)(H,41,42)/b25-13-,26-13-,27-14-,28-15-,29-14-,30-15-,31-16-,32-16-

> <INCHIKEY>
KSFOVUSSGSKXFI-UJJXFSCMSA-N

> <BEILSTEIN_REGISTRY_NUMBER>
635161

> <CAS_REGISTRY_NUMBER>
553-12-8

> <GMELIN_REGISTRY_NUMBER>
251232

> <REAXYS_REGISTRY_NUMBER>
380795

> <CHEMIDPLUS>
553-12-8

> <DRUGBANK_ACCESSION>
DB02285

> <HMDB_ACCESSION>
HMDB0000241

> <KEGG_COMPOUND_ACCESSION>
C02191

> <KNAPSACK_ACCESSION>
C00007370

> <METACYC_ACCESSION>
PROTOPORPHYRIN_IX

> <NIST_CHEMISTRY_WEBBOOK>
553-12-8

> <PDBECHEM_ACCESSION>
PP9

> <WIKIPEDIA_ACCESSION>
Protoporphyrin_IX

> <PUBMED_CITATION>
18625294; 19005892; 20961864; 21146529; 21167148; 21668870; 21760730; 21913427; 23533060

$$$$

Marvin  10140713272D          

  6  5  0  0  0  0            999 V2000
   -1.4289   -0.1650    0.0000 C   0  0  0  0  0  0  0  0  0  0  0  0
   -0.7145    0.2475    0.0000 N   0  0  0  0  0  0  0  0  0  0  0  0
    0.7145    0.2475    0.0000 C   0  0  0  0  0  0  0  0  0  0  0  0
    1.4289   -0.1650    0.0000 O   0  0  0  0  0  0  0  0  0  0  0  0
    0.0000   -0.1650    0.0000 C   0  0  0  0  0  0  0  0  0  0  0  0
    0.7145    1.0726    0.0000 O   0  0  0  0  0  0  0  0  0  0  0  0
  2  1  1  0  0  0  0
  3  6  2  0  0  0  0
  4  3  1  0  0  0  0
  5  2  1  0  0  0  0
  5  3  1  0  0  0  0
M  END
> <ID>
CHEBI:15611

> <NAME>
sarcosine

> <DEFINITION>
A N-alkylglycine that is the N-methyl derivative of glycine. It is an intermediate in the metabolic pathway of glycine.

> <STAR>
3

> <SECONDARY_ID>
CHEBI:45442; CHEBI:45531; CHEBI:45614; CHEBI:45381; CHEBI:10876; CHEBI:12609; CHEBI:9029; CHEBI:15065; CHEBI:21765

> <SYNONYM>
sarcosinic acid; SARCOSINE; Sarcosine; Sar; N-Methylglycine; N-methylaminoacetic acid; methylaminoacetic acid; MeGly; L-sarcosine; (methylamino)ethanoic acid; (methylamino)acetic acid

> <IUPAC_NAME>
sarcosine

> <FORMULA>
C3H7NO2

> <MASS>
89.09322

> <MONOISOTOPIC_MASS>
89.04768

> <CHARGE>
0

> <SMILES>
CNCC(O)=O

> <INCHI>
InChI=1S/C3H7NO2/c1-4-2-3(5)6/h4H,2H2,1H3,(H,5,6)

> <INCHIKEY>
FSYKKLYZXJSNPZ-UHFFFAOYSA-N

> <BEILSTEIN_REGISTRY_NUMBER>
1699442

> <CAS_REGISTRY_NUMBER>
107-97-1

> <GMELIN_REGISTRY_NUMBER>
2018

> <REAXYS_REGISTRY_NUMBER>
1699442

> <CHEMIDPLUS>
107-97-1

> <HMDB_ACCESSION>
HMDB0000271

> <KEGG_COMPOUND_ACCESSION>
C00213

> <METACYC_ACCESSION>
SARCOSINE

> <NIST_CHEMISTRY_WEBBOOK>
107-97-1

> <PDBECHEM_ACCESSION>
SAR

> <WIKIPEDIA_ACCESSION>
Sarcosine

> <PUBMED_CITATION>
11272730; 11850512; 15023571; 15331688; 16154544; 17095900; 17190852; 17901997; 19433577; 19577367; 19619564; 19944746

$$$$

Ketcher 08062011212D 1   1.00000     0.00000     0

 46 48  0     1  0            999 V2000
   34.4673  -10.9277    0.0000 O   0  0  0  0  0  0  0  0  0  0  0  0
   36.1807   -9.9384    0.0000 O   0  0  0  0  0  0  0  0  0  0  0  0
   37.0376   -9.4437    0.0000 C   0  0  0  0  0  0  0  0  0  0  0  0
   37.0376   -8.4543    0.0000 C   0  0  0  0  0  0  0  0  0  0  0  0
   37.8942   -7.9596    0.0000 O   0  0  0  0  0  0  0  0  0  0  0  0
   36.1807   -7.9596    0.0000 C   0  0  0  0  0  0  0  0  0  0  0  0
   36.1807   -6.9703    0.0000 O   0  0  0  0  0  0  0  0  0  0  0  0
   35.3239   -8.4543    0.0000 C   0  0  0  0  0  0  0  0  0  0  0  0
   34.4673   -7.9596    0.0000 O   0  0  0  0  0  0  0  0  0  0  0  0
   35.3239  -10.4330    0.0000 H   0  0  0  0  0  0  0  0  0  0  0  0
   35.3239   -9.4437    0.0000 C   0  0  0  0  0  0  0  0  0  0  0  0
   33.6105   -9.4437    0.0000 C   0  0  0  0  0  0  0  0  0  0  0  0
   34.4673   -9.9384    0.0000 C   0  0  0  0  0  0  0  0  0  0  0  0
   37.8942   -9.9384    0.0000 O   0  0  0  0  0  0  0  0  0  0  0  0
   39.8729  -11.6517    0.0000 O   0  0  0  0  0  0  0  0  0  0  0  0
   39.3784  -10.7950    0.0000 C   0  0  0  0  0  0  0  0  0  0  0  0
   38.3889  -10.7950    0.0000 C   0  0  0  0  0  0  0  0  0  0  0  0
   37.8943  -11.6517    0.0000 C   0  0  0  0  0  0  0  0  0  0  0  0
   36.9049  -11.6519    0.0000 O   0  0  0  0  0  0  0  0  0  0  0  0
   38.3890  -12.5087    0.0000 C   0  0  0  0  0  0  0  0  0  0  0  0
   37.8943  -13.3653    0.0000 O   0  0  0  0  0  0  0  0  0  0  0  0
   40.3677  -12.5086    0.0000 H   0  0  0  0  0  0  0  0  0  0  0  0
   39.3784  -12.5086    0.0000 C   0  0  0  0  0  0  0  0  0  0  0  0
   39.3784  -14.2221    0.0000 C   0  0  0  0  0  0  0  0  0  0  0  0
   39.8731  -15.0788    0.0000 O   0  0  0  0  0  0  0  0  0  0  0  0
   39.8731  -13.3653    0.0000 C   0  0  0  0  0  0  0  0  0  0  0  0
   40.8624  -13.3653    0.0000 O   0  0  0  0  0  0  0  0  0  0  0  0
   40.1766   -9.7777    0.0000 O   0  0  0  0  0  0  0  0  0  0  0  0
   41.3783   -7.1462    0.0000 O   0  0  0  0  0  0  0  0  0  0  0  0
   41.3783   -8.1355    0.0000 C   0  0  0  0  0  0  0  0  0  0  0  0
   40.5215   -8.6301    0.0000 C   0  0  0  0  0  0  0  0  0  0  0  0
   39.6647   -8.1353    0.0000 C   0  0  0  0  0  0  0  0  0  0  0  0
   38.8078   -8.6300    0.0000 O   0  0  0  0  0  0  0  0  0  0  0  0
   39.6647   -7.1460    0.0000 C   0  0  0  0  0  0  0  0  0  0  0  0
   38.8080   -6.6515    0.0000 O   0  0  0  0  0  0  0  0  0  0  0  0
   41.3783   -6.1567    0.0000 H   0  0  0  0  0  0  0  0  0  0  0  0
   40.5216   -6.6514    0.0000 C   0  0  0  0  0  0  0  0  0  0  0  0
   39.6649   -5.1674    0.0000 C   0  0  0  0  0  0  0  0  0  0  0  0
   39.6649   -4.1781    0.0000 O   0  0  0  0  0  0  0  0  0  0  0  0
   40.5216   -5.6620    0.0000 C   0  0  0  0  0  0  0  0  0  0  0  0
   41.3785   -5.1675    0.0000 O   0  0  0  0  0  0  0  0  0  0  0  0
   42.2351   -8.6300    0.0000 O   0  0  0  0  0  0  0  0  0  0  0  0
   43.0919   -8.1353    0.0000 C   0  0  0  0  0  0  0  0  0  0  0  0
   43.9487   -8.6300    0.0000 C   0  0  0  0  0  0  0  0  0  0  0  0
   44.8054   -8.1353    0.0000 C   0  0  0  0  0  0  0  0  0  0  0  0
   45.6622   -8.6300    0.0000 N   0  0  0  0  0  0  0  0  0  0  0  0
  2 11  1  0     0  0
  2  3  1  0     0  0
 11  8  1  0     0  0
  8  6  1  0     0  0
  6  4  1  0     0  0
  4  3  1  0     0  0
  3 14  1  1     0  0
  4  5  1  6     0  0
  6  7  1  6     0  0
  8  9  1  1     0  0
 11 10  1  1     0  0
 11 13  1  0     0  0
 13 12  1  0     0  0
 13  1  1  6     0  0
 15 23  1  0     0  0
 15 16  1  0     0  0
 23 20  1  0     0  0
 20 18  1  0     0  0
 18 17  1  0     0  0
 17 16  1  0     0  0
 16 28  1  1     0  0
 17 14  1  6     0  0
 18 19  1  6     0  0
 20 21  1  1     0  0
 23 22  1  1     0  0
 23 26  1  0     0  0
 26 24  1  0     0  0
 24 25  1  0     0  0
 26 27  1  6     0  0
 29 37  1  0     0  0
 29 30  1  0     0  0
 37 34  1  0     0  0
 34 32  1  0     0  0
 32 31  1  0     0  0
 31 30  1  0     0  0
 30 42  1  6     0  0
 31 28  1  1     0  0
 32 33  1  1     0  0
 34 35  1  6     0  0
 37 36  1  6     0  0
 37 40  1  0     0  0
 40 38  1  0     0  0
 38 39  1  0     0  0
 40 41  1  1     0  0
 44 43  1  0     0  0
 45 44  1  0     0  0
 46 45  1  0     0  0
 43 42  1  0     0  0
M  END
> <ID>
CHEBI:156277

> <NAME>
alpha-DD-Hep-(1->2)-alpha-DD-Hep-(1->2)-alpha-DD-Hep-O[CH2]3NH2

> <DEFINITION>
A linear synthetic trisaccharide derivative consisting of three D-glycero-α-D-manno-heptopyranose residue linked (1→2). An aminopropyl linker at the reducing end enables printing onto microscope slides. One of a series of substructures of the Helicobacter pylori O6 O-antigen tridecasaccharide O-antigen used for its immunological evaluation.

> <STAR>
3

> <SYNONYM>
DDHepalpha1-2DDHepalpha1-2alpha1-3DDHepalphaO[CH2]3NH2; D-glycero-alpha-D-manno-heptopyranosyl-(1->2)-D-glycero-alpha-D-manno-heptopyranosyl-(1->2)-(3-aminopropyl)-D-glycero-alpha-D-manno-heptopyranoside; alpha-DD-Hepp-(1->2)-alpha-DD-Hepp-(1->2)-alpha-DD-Hepp-O[CH2]3NH2; 3-aminopropyl D-glycero-alpha-D-manno-heptosyl-(1->2)-D-glycero-alpha-D-manno-heptosyl-(1->2)-D-glycero-alpha-D-manno-heptoside

> <IUPAC_NAME>
3-aminopropyl D-glycero-alpha-D-manno-heptopyranosyl-(1->2)-D-glycero-alpha-D-manno-heptopyranosyl-(1->2)-D-glycero-alpha-D-manno-heptopyranoside

> <FORMULA>
C24H45NO18

> <MASS>
635.613

> <MONOISOTOPIC_MASS>
635.26366

> <CHARGE>
0

> <SMILES>
[H][C@@]1(O[C@H](O[C@@H]2[C@@H](O[C@@H]3[C@@H](OCCCN)O[C@]([H])([C@H](O)CO)[C@@H](O)[C@@H]3O)O[C@]([H])([C@H](O)CO)[C@@H](O)[C@@H]2O)[C@@H](O)[C@@H](O)[C@@H]1O)[C@@H](C)O

> <INCHI>
InChI=1S/C24H45NO18/c1-7(28)17-11(32)10(31)16(37)22(39-17)42-21-15(36)13(34)19(9(30)6-27)41-24(21)43-20-14(35)12(33)18(8(29)5-26)40-23(20)38-4-2-3-25/h7-24,26-37H,2-6,25H2,1H3/t7-,8-,9-,10+,11+,12+,13+,14+,15+,16+,17-,18-,19-,20+,21+,22-,23+,24-/m1/s1

> <INCHIKEY>
QUQRXMKGJRRBJI-OJLZIVPBSA-N

> <PUBMED_CITATION>
32363752

$$$$
ChEBI


 12 12  0  0  1  0  0  0  0  0  1 V2000
   18.7633   -9.5784    0.0000 C   0  0  0  0  0  0  0  0  0  0  0  0
   18.7633   -8.2484    0.0000 O   0  0  0  0  0  0  0  0  0  0  0  0
   17.6115  -10.2434    0.0000 C   0  0  0  0  0  0  0  0  0  0  0  0
   19.9151  -10.2434    0.0000 O   0  0  0  0  0  0  0  0  0  0  0  0
   17.6115  -11.5734    0.0000 N   0  0  0  0  0  0  0  0  0  0  0  0
   16.4597   -9.5784    0.0000 C   0  0  0  0  0  0  0  0  0  0  0  0
   15.3079  -10.2434    0.0000 C   0  0  0  0  0  0  0  0  0  0  0  0
   16.4596   -8.2483    0.0000 C   0  0  0  0  0  0  0  0  0  0  0  0
   14.1560   -9.5783    0.0000 C   0  0  0  0  0  0  0  0  0  0  0  0
   15.3078   -7.5834    0.0000 C   0  0  0  0  0  0  0  0  0  0  0  0
   14.1560   -8.2484    0.0000 C   0  0  0  0  0  0  0  0  0  0  0  0
   13.0042   -7.5834    0.0000 O   0  0  0  0  0  0  0  0  0  0  0  0
  1  2  2  0  0  0  0
  1  3  1  0  0  0  0
  4  1  1  0  0  0  0
  3  5  1  6  0  0  0
  7  6  1  0  0  0  0
  8  6  2  0  0  0  0
  9  7  2  0  0  0  0
 10  8  1  0  0  0  0
 11  9  1  0  0  0  0
 11 10  2  0  0  0  0
  3  6  1  0  0  0  0
 12 11  1  0  0  0  0
M  END
> <ID>
CHEBI:15695

> <NAME>
D-4-hydroxyphenylglycine

> <DEFINITION>
The D-enantiomer of 4-hydroxyphenylglycine. A non-proteinogenic amino acid found in Herpetosiphon aurantiacus.

> <STAR>
3

> <SECONDARY_ID>
CHEBI:41895; CHEBI:42712; CHEBI:42713; CHEBI:4084; CHEBI:12887

> <SYNONYM>
D-N-(4-Hydroxyphenyl)glycine; D-4-Hydroxyphenylglycine; 4-HYDROXYPHENYLGLYCINE; (R)-alpha-Amino-4-hydroxybenzeneacetic acid

> <IUPAC_NAME>
(2R)-amino(4-hydroxyphenyl)acetic acid

> <FORMULA>
C8H9NO3

> <MASS>
167.16200

> <MONOISOTOPIC_MASS>
167.05824

> <CHARGE>
0

> <SMILES>
N[C@@H](C(O)=O)c1ccc(O)cc1

> <INCHI>
InChI=1S/C8H9NO3/c9-7(8(11)12)5-1-3-6(10)4-2-5/h1-4,7,10H,9H2,(H,11,12)/t7-/m1/s1

> <INCHIKEY>
LJCWONGJFPCTTL-SSDOTTSWSA-N

> <CAS_REGISTRY_NUMBER>
22818-40-2

> <REAXYS_REGISTRY_NUMBER>
6056393

> <CHEMIDPLUS>
22818-40-2

> <KEGG_COMPOUND_ACCESSION>
C03493

> <METACYC_ACCESSION>
D-4-HYDROXYPHENYLGLYCINE

> <PDBECHEM_ACCESSION>
GHP

> <PUBMED_CITATION>
20140718; 22307823; 22515657; 7716788

$$$$

11280714542D 1   1.00000     0.00000     0

 23 25  0     0  0            999 V2000
    3.5167   -2.4042    0.0000 C   0  0  0  0  0  0           0  0  0
    2.4792   -2.4125    0.0000 C   0  0  0  0  0  0           0  0  0
    2.4792   -3.0125    0.0000 C   0  0  0  0  0  0           0  0  0
    1.9542   -3.3167    0.0000 N   0  0  0  0  0  0           0  0  0
    2.9917   -2.1042    0.0000 C   0  0  0  0  0  0           0  0  0
    3.0000   -3.3125    0.0000 N   0  0  3  0  0  0           0  0  0
    3.5167   -3.0042    0.0000 C   0  0  0  0  0  0           0  0  0
    1.4417   -3.0167    0.0000 C   0  0  0  0  0  0           0  0  0
    1.9542   -2.1125    0.0000 C   0  0  0  0  0  0           0  0  0
    4.0292   -2.1000    0.0000 C   0  0  0  0  0  0           0  0  0
    1.4417   -2.4125    0.0000 C   0  0  0  0  0  0           0  0  0
    0.9167   -3.3167    0.0000 N   0  0  3  0  0  0           0  0  0
    2.9917   -1.5042    0.0000 O   0  0  0  0  0  0           0  0  0
   -0.1208   -3.9042    0.0000 N   0  0  0  0  0  0           0  0  0
    4.0292   -1.5000    0.0000 O   0  0  0  0  0  0           0  0  0
    0.9167   -2.1167    0.0000 F   0  0  0  0  0  0           0  0  0
    4.5542   -2.3917    0.0000 O   0  0  0  0  0  0           0  0  0
    2.9792   -3.8750    0.0000 C   0  0  0  0  0  0           0  0  0
    0.4042   -3.0125    0.0000 C   0  0  0  0  0  0           0  0  0
    0.9250   -3.9125    0.0000 C   0  0  0  0  0  0           0  0  0
    0.4000   -4.2125    0.0000 C   0  0  0  0  0  0           0  0  0
   -0.1125   -3.3042    0.0000 C   0  0  0  0  0  0           0  0  0
    2.4417   -4.1500    0.0000 C   0  0  0  0  0  0           0  0  0
  2  5  1  0     0  0
  3  6  1  0     0  0
  4  3  1  0     0  0
  5  1  1  0     0  0
  6  7  1  0     0  0
  7  1  2  0     0  0
  8  4  2  0     0  0
  9  2  1  0     0  0
 10  1  1  0     0  0
 11  9  2  0     0  0
 12  8  1  0     0  0
 13  5  2  0     0  0
 14 21  1  0     0  0
 15 10  2  0     0  0
 16 11  1  0     0  0
 17 10  1  0     0  0
 18  6  1  0     0  0
 19 12  1  0     0  0
 20 12  1  0     0  0
 21 20  1  0     0  0
 22 19  1  0     0  0
 23 18  1  0     0  0
  2  3  2  0     0  0
 11  8  1  0     0  0
 22 14  1  0     0  0
M  END
> <ID>
CHEBI:157175

> <NAME>
enoxacin

> <DEFINITION>
A 1,8-naphthyridine derivative that is 1,4-dihydro-1,8-naphthyridine with an ethyl group at the 1 position, a carboxy group at the 3-position, an oxo sustituent at the 4-position, a fluoro substituent at the 5-position and a piperazin-1-yl group at the 7 position. An antibacterial, it is used in the treatment of urinary-tract infections and gonorrhoea.

> <STAR>
3

> <SECONDARY_ID>
CHEBI:4796

> <SYNONYM>
ENOXACIN; Enoxacin; 1-Ethyl-6-fluoro-4-oxo-7-piperazin-1-yl-1,4-dihydro-[1,8]naphthyridine-3-carboxylic acid; 1-ethyl-6-fluoro-1,4-dihydro-4-oxo-7-(1-piperazinyl)-1,8-naphthyridine-3-carboxylic acid

> <IUPAC_NAME>
1-ethyl-6-fluoro-4-oxo-7-(piperazin-1-yl)-1,4-dihydro-1,8-naphthyridine-3-carboxylic acid

> <INN>
enoxacinum; enoxacino; enoxacine; enoxacin

> <FORMULA>
C15H17FN4O3

> <MASS>
320.31890

> <MONOISOTOPIC_MASS>
320.12847

> <CHARGE>
0

> <SMILES>
CCn1cc(C(O)=O)c(=O)c2cc(F)c(nc12)N1CCNCC1

> <INCHI>
InChI=1S/C15H17FN4O3/c1-2-19-8-10(15(22)23)12(21)9-7-11(16)14(18-13(9)19)20-5-3-17-4-6-20/h7-8,17H,2-6H2,1H3,(H,22,23)

> <INCHIKEY>
IDYZIJYBMGIQMJ-UHFFFAOYSA-N

> <BEILSTEIN_REGISTRY_NUMBER>
3628995

> <CAS_REGISTRY_NUMBER>
74011-58-8

> <REAXYS_REGISTRY_NUMBER>
3628995

> <CHEMIDPLUS>
74011-58-8

> <DRUGBANK_ACCESSION>
DB00467

> <KEGG_COMPOUND_ACCESSION>
C06979

> <KEGG_DRUG_ACCESSION>
D00310

> <LINCS_ACCESSION>
LSM-5848

> <WIKIPEDIA_ACCESSION>
Enoxacin

> <PUBMED_CITATION>
16644219; 8741236

$$$$

Marvin  11181016472D          

 18 17  0  0  0  0            999 V2000
    3.8058  -21.0278    0.0000 C   0  0  0  0  0  0  0  0  0  0  0  0
    3.8058  -21.8528    0.0000 C   0  0  0  0  0  0  0  0  0  0  0  0
    3.0912  -20.6153    0.0000 C   0  0  0  0  0  0  0  0  0  0  0  0
    3.0912  -22.2653    0.0000 C   0  0  0  0  0  0  0  0  0  0  0  0
    2.3768  -21.0278    0.0000 C   0  0  0  0  0  0  0  0  0  0  0  0
    2.3768  -21.8528    0.0000 C   0  0  0  0  0  0  0  0  0  0  0  0
    5.2348  -21.0278    0.0000 C   0  0  0  0  0  0  0  0  0  0  0  0
    5.2348  -21.8528    0.0000 C   0  0  0  0  0  0  0  0  0  0  0  0
    4.5202  -20.6153    0.0000 C   0  0  0  0  0  0  0  0  0  0  0  0
    4.5202  -22.2653    0.0000 C   0  0  0  0  0  0  0  0  0  0  0  0
    6.6638  -21.0278    0.0000 C   0  0  0  0  0  0  0  0  0  0  0  0
    6.6638  -21.8528    0.0000 C   0  0  0  0  0  0  0  0  0  0  0  0
    5.9492  -20.6153    0.0000 C   0  0  0  0  0  0  0  0  0  0  0  0
    5.9492  -22.2653    0.0000 C   0  0  0  0  0  0  0  0  0  0  0  0
    7.3782  -20.6153    0.0000 C   0  0  0  0  0  0  0  0  0  0  0  0
    7.3782  -22.2653    0.0000 C   0  0  0  0  0  0  0  0  0  0  0  0
    8.0927  -21.0277    0.0000 O   0  0  0  0  0  0  0  0  0  0  0  0
    7.3782  -19.7903    0.0000 O   0  0  0  0  0  0  0  0  0  0  0  0
  3  1  1  0  0  0  0
  4  2  1  0  0  0  0
  5  3  1  0  0  0  0
  6  4  1  0  0  0  0
  6  5  1  0  0  0  0
  9  7  1  0  0  0  0
 10  8  1  0  0  0  0
  1  9  1  0  0  0  0
  2 10  1  0  0  0  0
 13 11  1  0  0  0  0
 14 12  1  0  0  0  0
  7 13  1  0  0  0  0
  8 14  1  0  0  0  0
 11 15  1  0  0  0  0
 12 16  1  0  0  0  0
 15 17  1  0  0  0  0
 15 18  2  0  0  0  0
M  END
> <ID>
CHEBI:15756

> <NAME>
hexadecanoic acid

> <DEFINITION>
A straight-chain, sixteen-carbon, saturated long-chain fatty acid.

> <STAR>
3

> <SECONDARY_ID>
CHEBI:24542; CHEBI:35978; CHEBI:24540; CHEBI:24550; CHEBI:44952; CHEBI:233028; CHEBI:14730; CHEBI:24541; CHEBI:29889

> <SYNONYM>
Pentadecanecarboxylic acid; Palmitinsaeure; Palmitinic acid; palmitic acid; Palmitic acid; PALMITIC ACID; Palmitate; n-hexadecoic acid; n-hexadecanoic acid; Hexaectylic acid; Hexadecylic acid; Hexadecylic acid; hexadecoic acid; Hexadecanoate; FA 16:0; CH3-[CH2]14-COOH; cetylic acid; C16:0; C16 fatty acid; C16; 16:00; 1-Pentadecanecarboxylic acid; 1-hexyldecanoic acid

> <IUPAC_NAME>
hexadecanoic acid

> <FORMULA>
C16H32O2

> <MASS>
256.42410

> <MONOISOTOPIC_MASS>
256.24023

> <CHARGE>
0

> <SMILES>
CCCCCCCCCCCCCCCC(O)=O

> <INCHI>
InChI=1S/C16H32O2/c1-2-3-4-5-6-7-8-9-10-11-12-13-14-15-16(17)18/h2-15H2,1H3,(H,17,18)

> <INCHIKEY>
IPCSVZSSVZVIGE-UHFFFAOYSA-N

> <BEILSTEIN_REGISTRY_NUMBER>
607489

> <CAS_REGISTRY_NUMBER>
57-10-3

> <GMELIN_REGISTRY_NUMBER>
190200

> <REAXYS_REGISTRY_NUMBER>
607489

> <CHEMIDPLUS>
57-10-3

> <DRUGBANK_ACCESSION>
DB03796

> <HMDB_ACCESSION>
HMDB0000220

> <KEGG_COMPOUND_ACCESSION>
C00249

> <KEGG_DRUG_ACCESSION>
D05341

> <KNAPSACK_ACCESSION>
C00030479

> <LIPID_MAPS_INSTANCE_ACCESSION>
LMFA01010001

> <METACYC_ACCESSION>
PALMITATE

> <NIST_CHEMISTRY_WEBBOOK>
57-10-3

> <PDBECHEM_ACCESSION>
PLM

> <WIKIPEDIA_ACCESSION>
Palmitic_acid

> <PUBMED_CITATION>
12492626; 1589452; 17439666; 20001317; 22735334; 25584012; 28600633; 15357969; 16509590; 16884313; 17502136

$$$$

Marvin  04290818062D          

 14 14  0  0  1  0            999 V2000
   -0.7145    0.4125    0.0000 C   0  0  0  0  0  0  0  0  0  0  0  0
   -0.7145   -0.4125    0.0000 C   0  0  0  0  0  0  0  0  0  0  0  0
    0.7145    0.4125    0.0000 C   0  0  0  0  0  0  0  0  0  0  0  0
    0.7145   -0.4125    0.0000 C   0  0  0  0  0  0  0  0  0  0  0  0
    0.0000    0.8250    0.0000 C   0  0  0  0  0  0  0  0  0  0  0  0
    2.8579    0.8250    0.0000 C   0  0  0  0  0  0  0  0  0  0  0  0
    2.8579    1.6500    0.0000 O   0  0  0  0  0  0  0  0  0  0  0  0
    2.1434    0.4125    0.0000 C   0  0  1  0  0  0  0  0  0  0  0  0
    2.1434   -0.4125    0.0000 N   0  0  0  0  0  0  0  0  0  0  0  0
    1.4289    0.8250    0.0000 C   0  0  0  0  0  0  0  0  0  0  0  0
    3.5723    0.4125    0.0000 O   0  0  0  0  0  0  0  0  0  0  0  0
   -1.4290   -0.8250    0.0000 O   0  0  0  0  0  0  0  0  0  0  0  0
    0.0000   -0.8250    0.0000 C   0  0  0  0  0  0  0  0  0  0  0  0
    0.0000   -1.6500    0.0000 O   0  0  0  0  0  0  0  0  0  0  0  0
  2  1  2  0  0  0  0
 12  2  1  0  0  0  0
 10  3  1  0  0  0  0
  4  3  1  0  0  0  0
  1  5  1  0  0  0  0
  5  3  2  0  0  0  0
  2 13  1  0  0  0  0
 13  4  2  0  0  0  0
  6  7  2  0  0  0  0
  6  8  1  0  0  0  0
 11  6  1  0  0  0  0
  8  9  1  1  0  0  0
  8 10  1  0  0  0  0
 13 14  1  0  0  0  0
M  END
> <ID>
CHEBI:15765

> <NAME>
L-dopa

> <DEFINITION>
An optically active form of dopa having L-configuration. Used to treat the stiffness, tremors, spasms, and poor muscle control of Parkinson's disease

> <STAR>
3

> <SECONDARY_ID>
CHEBI:75987; CHEBI:41871; CHEBI:49933; CHEBI:1377; CHEBI:11693; CHEBI:13098; CHEBI:19825

> <SYNONYM>
L-DOPA; L-Dopa; L-beta-(3,4-Dihydroxyphenyl)alanine; Dihydroxy-L-phenylalanine; beta-(3,4-dihydroxyphenyl)alanine; beta-(3,4-dihydroxyphenyl)-L-alanine; 3-Hydroxy-L-tyrosine; 3,4-DIHYDROXYPHENYLALANINE; 3,4-Dihydroxy-L-phenylalanine; (-)-dopa; (-)-3-(3,4-dihydroxyphenyl)-L-alanine

> <IUPAC_NAME>
L-dopa; (2S)-2-amino-3-(3,4-dihydroxyphenyl)propanoic acid

> <INN>
levodopum; levodopa

> <BRAND_NAME>
Dopar

> <FORMULA>
C9H11NO4

> <MASS>
197.18798

> <MONOISOTOPIC_MASS>
197.06881

> <CHARGE>
0

> <SMILES>
N[C@@H](Cc1ccc(O)c(O)c1)C(O)=O

> <INCHI>
InChI=1S/C9H11NO4/c10-6(9(13)14)3-5-1-2-7(11)8(12)4-5/h1-2,4,6,11-12H,3,10H2,(H,13,14)/t6-/m0/s1

> <INCHIKEY>
WTDRDQBEARUVNC-LURJTMIESA-N

> <BEILSTEIN_REGISTRY_NUMBER>
6060047

> <CAS_REGISTRY_NUMBER>
59-92-7

> <GMELIN_REGISTRY_NUMBER>
365846

> <REAXYS_REGISTRY_NUMBER>
2215169

> <CHEMIDPLUS>
59-92-7

> <DRUGBANK_ACCESSION>
DB01235

> <HMDB_ACCESSION>
HMDB0000181

> <KEGG_COMPOUND_ACCESSION>
C00355

> <KEGG_DRUG_ACCESSION>
D00059

> <KNAPSACK_ACCESSION>
C00001357

> <LINCS_ACCESSION>
LSM-5481

> <METACYC_ACCESSION>
L-DIHYDROXY-PHENYLALANINE

> <NIST_CHEMISTRY_WEBBOOK>
59-92-7

> <PDBECHEM_ACCESSION>
DAH_LFOH

> <WIKIPEDIA_ACCESSION>
Levodopa

> <PUBMED_CITATION>
18690870; 22491024; 22592937; 23038403; 23127496; 23196068; 23206800; 23211937; 23357114; 23389842; 23389938; 23390548; 29438107; 8301021

$$$$

Marvin  03290615522D          

 15 15  0  0  1  0            999 V2000
    2.0634    1.4835    0.0000 O   0  0  0  0  0  0  0  0  0  0  0  0
    2.0634    0.6585    0.0000 C   0  0  0  0  0  0  0  0  0  0  0  0
    2.7779    0.2460    0.0000 O   0  0  0  0  0  0  0  0  0  0  0  0
    1.3490    0.2460    0.0000 C   0  0  1  0  0  0  0  0  0  0  0  0
    1.3490   -0.5790    0.0000 N   0  0  0  0  0  0  0  0  0  0  0  0
    0.6345    0.6585    0.0000 C   0  0  0  0  0  0  0  0  0  0  0  0
   -0.0800    0.2460    0.0000 C   0  0  0  0  0  0  0  0  0  0  0  0
   -0.0800   -0.5790    0.0000 C   0  0  0  0  0  0  0  0  0  0  0  0
   -0.7944    0.6585    0.0000 C   0  0  0  0  0  0  0  0  0  0  0  0
   -1.5089    0.2460    0.0000 C   0  0  0  0  0  0  0  0  0  0  0  0
   -0.7944   -0.9915    0.0000 C   0  0  0  0  0  0  0  0  0  0  0  0
   -1.5089   -0.5790    0.0000 C   0  0  0  0  0  0  0  0  0  0  0  0
   -2.2234   -0.9915    0.0000 O   0  0  0  0  0  0  0  0  0  0  0  0
   -2.2234    0.6585    0.0000 I   0  0  0  0  0  0  0  0  0  0  0  0
   -0.7944   -1.8165    0.0000 I   0  0  0  0  0  0  0  0  0  0  0  0
  2  1  2  0  0  0  0
  3  2  1  0  0  0  0
  4  2  1  0  0  0  0
  4  5  1  1  0  0  0
  6  4  1  0  0  0  0
  7  6  1  0  0  0  0
  8  7  1  0  0  0  0
  9  7  2  0  0  0  0
 10  9  1  0  0  0  0
 11  8  2  0  0  0  0
 12 10  2  0  0  0  0
 11 12  1  0  0  0  0
 13 12  1  0  0  0  0
 14 10  1  0  0  0  0
 15 11  1  0  0  0  0
M  END
> <ID>
CHEBI:15768

> <NAME>
3,5-diiodo-L-tyrosine

> <DEFINITION>
A diiodotyrosine that is L-tyrosine carrying iodo-substituents at positions C-3 and C-5 of the benzyl group. It is an intermediate in the thyroid hormone synthesis.

> <STAR>
3

> <SECONDARY_ID>
CHEBI:11710; CHEBI:46196; CHEBI:1405; CHEBI:19909

> <SYNONYM>
L-Diiodotyrosine; L-3,5-diiodotyrosine; DIT; DiIY; diiodotyrosine; 3,5-DIIODOTYROSINE; 3,5-Diiodotyrosine; 3,5-Diiodo-L-tyrosine; (2S)-2-amino-3-(4-hydroxy-3,5-diiodophenyl)propanoic acid

> <IUPAC_NAME>
3,5-diiodo-L-tyrosine

> <FORMULA>
C9H9I2NO3

> <MASS>
432.98164

> <MONOISOTOPIC_MASS>
432.86718

> <CHARGE>
0

> <SMILES>
N[C@@H](Cc1cc(I)c(O)c(I)c1)C(O)=O

> <INCHI>
InChI=1S/C9H9I2NO3/c10-5-1-4(2-6(11)8(5)13)3-7(12)9(14)15/h1-2,7,13H,3,12H2,(H,14,15)/t7-/m0/s1

> <INCHIKEY>
NYPYHUZRZVSYKL-ZETCQYMHSA-N

> <BEILSTEIN_REGISTRY_NUMBER>
2218691

> <CAS_REGISTRY_NUMBER>
300-39-0

> <GMELIN_REGISTRY_NUMBER>
1128682

> <REAXYS_REGISTRY_NUMBER>
2218691

> <CHEMIDPLUS>
300-39-0

> <DRUGBANK_ACCESSION>
DB03374

> <HMDB_ACCESSION>
HMDB0003474

> <KEGG_COMPOUND_ACCESSION>
C01060

> <LINCS_ACCESSION>
LSM-5697

> <PDBECHEM_ACCESSION>
TYI

> <PUBMED_CITATION>
11344555; 15206581; 15589368

$$$$

Marvin  07210817362D          

 23 25  0  0  1  0            999 V2000
    2.8984    5.6343    0.0000 N   0  0  0  0  0  0  0  0  0  0  0  0
    2.8984    4.8093    0.0000 C   0  0  0  0  0  0  0  0  0  0  0  0
    2.1839    4.3968    0.0000 N   0  0  0  0  0  0  0  0  0  0  0  0
    2.1838    3.5718    0.0000 C   0  0  0  0  0  0  0  0  0  0  0  0
    2.8983    3.1593    0.0000 N   0  0  0  0  0  0  0  0  0  0  0  0
    3.6128    3.5718    0.0000 C   0  0  0  0  0  0  0  0  0  0  0  0
    3.6128    4.3968    0.0000 C   0  0  0  0  0  0  0  0  0  0  0  0
    4.3974    4.6517    0.0000 N   0  0  0  0  0  0  0  0  0  0  0  0
    4.8824    3.9842    0.0000 C   0  0  0  0  0  0  0  0  0  0  0  0
    4.3974    3.3168    0.0000 N   0  0  0  0  0  0  0  0  0  0  0  0
    4.6524    2.5320    0.0000 C   0  0  2  0  0  0  0  0  0  0  0  0
    4.1674    1.8647    0.0000 O   0  0  0  0  0  0  0  0  0  0  0  0
    4.6523    1.1971    0.0000 C   0  0  1  0  0  0  0  0  0  0  0  0
    5.4369    1.4521    0.0000 C   0  0  1  0  0  0  0  0  0  0  0  0
    6.1044    0.9671    0.0000 O   0  0  0  0  0  0  0  0  0  0  0  0
    5.4370    2.2771    0.0000 C   0  0  1  0  0  0  0  0  0  0  0  0
    6.1044    2.7620    0.0000 O   0  0  0  0  0  0  0  0  0  0  0  0
    3.5723    0.4125    0.0000 O   0  0  0  0  0  0  0  0  0  0  0  0
    2.8578   -0.8250    0.0000 O   0  0  0  0  0  0  0  0  0  0  0  0
    2.8578    0.0000    0.0000 P   0  0  3  0  0  0  0  0  0  0  0  0
    2.8578    0.8250    0.0000 O   0  0  0  0  0  0  0  0  0  0  0  0
    2.1434    0.4125    0.0000 O   0  0  0  0  0  0  0  0  0  0  0  0
    4.3973    0.4125    0.0000 C   0  0  0  0  0  0  0  0  0  0  0  0
  1  2  1  0  0  0  0
  2  3  2  0  0  0  0
  2  7  1  0  0  0  0
  3  4  1  0  0  0  0
  4  5  2  0  0  0  0
  5  6  1  0  0  0  0
  6  7  2  0  0  0  0
  6 10  1  0  0  0  0
  7  8  1  0  0  0  0
  8  9  2  0  0  0  0
  9 10  1  0  0  0  0
 11 10  1  1  0  0  0
 11 12  1  0  0  0  0
 11 16  1  0  0  0  0
 12 13  1  0  0  0  0
 13 23  1  1  0  0  0
 13 14  1  0  0  0  0
 14 15  1  6  0  0  0
 14 16  1  0  0  0  0
 16 17  1  6  0  0  0
 18 20  1  0  0  0  0
 20 19  2  0  0  0  0
 20 22  1  0  0  0  0
 20 21  1  0  0  0  0
 23 18  1  0  0  0  0
M  END
> <ID>
CHEBI:16027

> <NAME>
adenosine 5'-monophosphate

> <DEFINITION>
A purine ribonucleoside 5'-monophosphate having adenine as the nucleobase.

> <STAR>
3

> <SECONDARY_ID>
CHEBI:13740; CHEBI:40510; CHEBI:22242; CHEBI:40726; CHEBI:40786; CHEBI:40826; CHEBI:47222; CHEBI:12056; CHEBI:2356; CHEBI:13736; CHEBI:13234; CHEBI:13235; CHEBI:22245

> <SYNONYM>
PAdo; pA; AMP; Ado5'P; Adenylic acid; Adenylate; adenosine-5'P; Adenosine-5'-monophosphoric acid; adenosine phosphate; ADENOSINE MONOPHOSPHATE; Adenosine 5'-phosphate; Adenosine 5'-monophosphate; adenosine 5'-(dihydrogen phosphate); 5'-O-phosphonoadenosine; 5'-AMP; 5'-Adenylic acid; 5'-Adenosine monophosphate

> <IUPAC_NAME>
5'-adenylic acid

> <INN>
phosphate d'adenosine; fosfato de adenosina; adenosini phosphas; adenosine phosphate

> <FORMULA>
C10H14N5O7P

> <MASS>
347.22120

> <MONOISOTOPIC_MASS>
347.06308

> <CHARGE>
0

> <SMILES>
Nc1ncnc2n(cnc12)[C@@H]1O[C@H](COP(O)(O)=O)[C@@H](O)[C@H]1O

> <INCHI>
InChI=1S/C10H14N5O7P/c11-8-5-9(13-2-12-8)15(3-14-5)10-7(17)6(16)4(22-10)1-21-23(18,19)20/h2-4,6-7,10,16-17H,1H2,(H2,11,12,13)(H2,18,19,20)/t4-,6-,7-,10-/m1/s1

> <INCHIKEY>
UDMBCSSLTHHNCD-KQYNXXCUSA-N

> <BEILSTEIN_REGISTRY_NUMBER>
54612

> <CAS_REGISTRY_NUMBER>
61-19-8

> <GMELIN_REGISTRY_NUMBER>
38561

> <REAXYS_REGISTRY_NUMBER>
54612

> <CHEMIDPLUS>
61-19-8

> <DRUGBANK_ACCESSION>
DB00131

> <HMDB_ACCESSION>
HMDB0000045

> <KEGG_COMPOUND_ACCESSION>
C00020

> <KEGG_DRUG_ACCESSION>
D02769

> <KNAPSACK_ACCESSION>
C00019347

> <LINCS_ACCESSION>
LSM-5914

> <METACYC_ACCESSION>
AMP

> <PDBECHEM_ACCESSION>
AMP

> <WIKIPEDIA_ACCESSION>
Adenylic_acid

> <PUBMED_CITATION>
11307758; 12020809; 12181610; 15148540; 15946677; 16091942; 16250233; 16295522; 17439666; 22215671; 22624049; 2559771

$$$$

Marvin  08300609312D          

 25 28  0  0  1  0            999 V2000
    0.5355   -1.0151    0.0000 C   0  0  0  0  0  0  0  0  0  0  0  0
   -0.1790    1.0474    0.0000 C   0  0  0  0  0  0  0  0  0  0  0  0
   -0.1790   -1.4276    0.0000 C   0  0  0  0  0  0  0  0  0  0  0  0
   -0.8935   -1.0151    0.0000 C   0  0  1  0  0  0  0  0  0  0  0  0
   -1.6080    0.2224    0.0000 C   0  0  0  0  0  0  0  0  0  0  0  0
    0.5355    1.4599    0.0000 C   0  0  0  0  0  0  0  0  0  0  0  0
   -1.6080   -1.4276    0.0000 C   0  0  0  0  0  0  0  0  0  0  0  0
   -2.3224   -0.1901    0.0000 C   0  0  0  0  0  0  0  0  0  0  0  0
   -2.3224   -1.0151    0.0000 C   0  0  1  0  0  0  0  0  0  0  0  0
   -3.0369   -1.4276    0.0000 O   0  0  0  0  0  0  0  0  0  0  0  0
   -0.8935   -1.8401    0.0000 H   0  0  0  0  0  0  0  0  0  0  0  0
    2.0346   -0.0325    0.0000 C   0  0  0  0  0  0  0  0  0  0  0  0
    2.5195    0.6349    0.0000 C   0  0  0  0  0  0  0  0  0  0  0  0
    2.0346    1.3024    0.0000 C   0  0  0  0  0  0  0  0  0  0  0  0
    2.2895    2.0870    0.0000 O   0  0  0  0  0  0  0  0  0  0  0  0
   -0.1790    0.2224    0.0000 C   0  0  1  0  0  0  0  0  0  0  0  0
   -0.1790   -0.6026    0.0000 H   0  0  0  0  0  0  0  0  0  0  0  0
    0.5355   -0.1901    0.0000 C   0  0  2  0  0  0  0  0  0  0  0  0
    0.5355    0.6349    0.0000 H   0  0  0  0  0  0  0  0  0  0  0  0
   -0.8935   -0.1901    0.0000 C   0  0  2  0  0  0  0  0  0  0  0  0
   -0.8935    0.6349    0.0000 C   0  0  0  0  0  0  0  0  0  0  0  0
    1.2499    1.0474    0.0000 C   0  0  1  0  0  0  0  0  0  0  0  0
    1.2499    1.8724    0.0000 C   0  0  0  0  0  0  0  0  0  0  0  0
    1.2499    0.2224    0.0000 C   0  0  1  0  0  0  0  0  0  0  0  0
    1.2499   -0.6026    0.0000 H   0  0  0  0  0  0  0  0  0  0  0  0
 18 16  1  0  0  0  0
 24 18  1  0  0  0  0
 18  1  1  0  0  0  0
 16 20  1  0  0  0  0
 16  2  1  0  0  0  0
  1  3  1  0  0  0  0
 20  4  1  0  0  0  0
 20  5  1  0  0  0  0
  2  6  1  0  0  0  0
  4  7  1  0  0  0  0
  5  8  1  0  0  0  0
  7  9  1  0  0  0  0
  9 10  1  6  0  0  0
 22  6  1  0  0  0  0
  4  3  1  0  0  0  0
  8  9  1  0  0  0  0
  4 11  1  6  0  0  0
 22 14  1  0  0  0  0
 24 22  1  0  0  0  0
 24 12  1  0  0  0  0
 14 13  1  0  0  0  0
 12 13  1  0  0  0  0
 14 15  2  0  0  0  0
 16 17  1  6  0  0  0
 18 19  1  1  0  0  0
 20 21  1  1  0  0  0
 22 23  1  1  0  0  0
 24 25  1  6  0  0  0
M  END
> <ID>
CHEBI:16032

> <NAME>
androsterone

> <DEFINITION>
An androstanoid that is 5α-androstane having a hydroxy substituent at the 3α-position and an oxo group at the 17-position. It is a metabolite of dehydroepiandrosterone .

> <STAR>
3

> <SECONDARY_ID>
CHEBI:2714; CHEBI:13832; CHEBI:20235

> <SYNONYM>
cis-androsterone; Androtine; Androsterone; Androkinine; 5alpha-androsterone; 5alpha-androstane-3alpha-ol-17-one; 3alpha-hydroxyetioallocholan-17-one; 3-alpha-hydroxy-5-alpha-androstan-17-one; 3alpha-Hydroxy-5alpha-androstan-17-one; 3-epihydroxyetioallocholan-17-one; (3alpha,5alpha)-3-hydroxyandrostan-17-one

> <IUPAC_NAME>
3alpha-hydroxy-5alpha-androstan-17-one

> <FORMULA>
C19H30O2

> <MASS>
290.44030

> <MONOISOTOPIC_MASS>
290.22458

> <CHARGE>
0

> <SMILES>
[H][C@@]12CC[C@@]3([H])[C@]4([H])CCC(=O)[C@@]4(C)CC[C@]3([H])[C@@]1(C)CC[C@@H](O)C2

> <INCHI>
InChI=1S/C19H30O2/c1-18-9-7-13(20)11-12(18)3-4-14-15-5-6-17(21)19(15,2)10-8-16(14)18/h12-16,20H,3-11H2,1-2H3/t12-,13+,14-,15-,16-,18-,19-/m0/s1

> <INCHIKEY>
QGXBDMJGAMFCBF-HLUDHZFRSA-N

> <BEILSTEIN_REGISTRY_NUMBER>
2217626

> <CAS_REGISTRY_NUMBER>
53-41-8

> <GMELIN_REGISTRY_NUMBER>
700649

> <REAXYS_REGISTRY_NUMBER>
2217626

> <CHEMIDPLUS>
53-41-8

> <HMDB_ACCESSION>
HMDB0000031

> <KEGG_COMPOUND_ACCESSION>
C00523

> <LIPID_MAPS_INSTANCE_ACCESSION>
LMST02020001

> <NIST_CHEMISTRY_WEBBOOK>
53-41-8

> <WIKIPEDIA_ACCESSION>
Androsterone

> <PUBMED_CITATION>
10438974; 19493957; 24705905

$$$$

Marvin  01220710342D          

  8  8  0  0  0  0            999 V2000
    0.7145   -0.4125    0.0000 C   0  0  0  0  0  0  0  0  0  0  0  0
    0.0000    0.8250    0.0000 C   0  0  0  0  0  0  0  0  0  0  0  0
   -0.7145   -0.4125    0.0000 C   0  0  0  0  0  0  0  0  0  0  0  0
    0.7145    0.4125    0.0000 N   0  0  0  0  0  0  0  0  0  0  0  0
    0.0000    1.6500    0.0000 N   0  0  0  0  0  0  0  0  0  0  0  0
    0.0000   -0.8250    0.0000 N   0  0  0  0  0  0  0  0  0  0  0  0
    1.4289   -0.8250    0.0000 O   0  0  0  0  0  0  0  0  0  0  0  0
   -0.7145    0.4125    0.0000 C   0  0  0  0  0  0  0  0  0  0  0  0
  8  3  2  0  0  0  0
  8  2  1  0  0  0  0
  3  6  1  0  0  0  0
  6  1  1  0  0  0  0
  1  4  1  0  0  0  0
  4  2  2  0  0  0  0
  1  7  2  0  0  0  0
  2  5  1  0  0  0  0
M  END
> <ID>
CHEBI:16040

> <NAME>
cytosine

> <DEFINITION>
An aminopyrimidine that is pyrimidin-2-one having the amino group located at position 4.

> <STAR>
3

> <SECONDARY_ID>
CHEBI:23531; CHEBI:41732; CHEBI:4072; CHEBI:14066

> <SYNONYM>
Zytosin; cytosine; Cytosine; Cytosin; Cyt; C; 4-amino-2-hydroxypyrimidine; 4-amino-2(1H)-pyrimidinone

> <IUPAC_NAME>
4-aminopyrimidin-2(1H)-one

> <FORMULA>
C4H5N3O

> <MASS>
111.10212

> <MONOISOTOPIC_MASS>
111.04326

> <CHARGE>
0

> <SMILES>
Nc1cc[nH]c(=O)n1

> <INCHI>
InChI=1S/C4H5N3O/c5-3-1-2-6-4(8)7-3/h1-2H,(H3,5,6,7,8)

> <INCHIKEY>
OPTASPLRGRRNAP-UHFFFAOYSA-N

> <BEILSTEIN_REGISTRY_NUMBER>
2637

> <CAS_REGISTRY_NUMBER>
71-30-7

> <GMELIN_REGISTRY_NUMBER>
82472

> <REAXYS_REGISTRY_NUMBER>
2637

> <CHEMIDPLUS>
71-30-7

> <HMDB_ACCESSION>
HMDB0000630

> <KEGG_COMPOUND_ACCESSION>
C00380

> <KNAPSACK_ACCESSION>
C00001498

> <METACYC_ACCESSION>
CYTOSINE

> <NIST_CHEMISTRY_WEBBOOK>
71-30-7

> <PDBECHEM_ACCESSION>
CYT

> <WIKIPEDIA_ACCESSION>
Cytosine

> <PUBMED_CITATION>
14253484; 22770225; 7877593

$$$$

Ketcher 04191811542D 1   1.00000     0.00000     0

 32 35  0     1  0            999 V2000
   -2.6376   -0.5038    0.0000 C   0  0  0  0  0  0  0  0  0  0  0  0
   -3.5146   -0.9853    0.0000 C   0  0  0  0  0  0  0  0  0  0  0  0
   -3.5146   -2.0037    0.0000 C   0  0  0  0  0  0  0  0  0  0  0  0
   -2.6376   -2.5039    0.0000 C   0  0  0  0  0  0  0  0  0  0  0  0
   -1.7885   -2.0037    0.0000 C   0  0  0  0  0  0  0  0  0  0  0  0
   -0.9208   -2.5039    0.0000 C   0  0  0  0  0  0  0  0  0  0  0  0
   -1.7885   -0.9853    0.0000 C   0  0  0  0  0  0  0  0  0  0  0  0
   -0.9208    0.4770    0.0000 C   0  0  0  0  0  0  0  0  0  0  0  0
   -0.0339    0.9867    0.0000 C   0  0  0  0  0  0  0  0  0  0  0  0
    0.8154    0.4770    0.0000 C   0  0  0  0  0  0  0  0  0  0  0  0
    0.8154   -0.5038    0.0000 C   0  0  0  0  0  0  0  0  0  0  0  0
    1.7677   -0.8155    0.0000 C   0  0  0  0  0  0  0  0  0  0  0  0
    2.3337   -0.0228    0.0000 C   0  0  0  0  0  0  0  0  0  0  0  0
    1.7677    0.7881    0.0000 C   0  0  0  0  0  0  0  0  0  0  0  0
    0.8154    1.5055    0.0000 C   0  0  0  0  0  0  0  0  0  0  0  0
   -1.7885   -0.0040    0.0000 C   0  0  0  0  0  0  0  0  0  0  0  0
    0.8154   -1.5134    0.0000 H   0  0  0  0  0  0  0  0  0  0  0  0
    2.6954    0.6279    0.0000 H   0  0  0  0  0  0  0  0  0  0  0  0
   -4.4046   -2.5266    0.0000 O   0  0  0  0  0  0  0  0  0  0  0  0
   -0.9208   -0.5038    0.0000 C   0  0  0  0  0  0  0  0  0  0  0  0
   -0.9208   -1.5056    0.0000 H   0  0  0  0  0  0  0  0  0  0  0  0
    0.9007    2.3172    0.0000 C   0  0  0  0  0  0  0  0  0  0  0  0
   -0.0339   -0.9853    0.0000 C   0  0  0  0  0  0  0  0  0  0  0  0
   -0.0339    0.0162    0.0000 H   0  0  0  0  0  0  0  0  0  0  0  0
   -0.0339   -2.0037    0.0000 C   0  0  0  0  0  0  0  0  0  0  0  0
    3.5020    1.8166    0.0000 C   0  0  0  0  0  0  0  0  0  0  0  0
    4.3691    2.3172    0.0000 C   0  0  0  0  0  0  0  0  0  0  0  0
    5.2363    1.8166    0.0000 C   0  0  0  0  0  0  0  0  0  0  0  0
    5.2363    0.8154    0.0000 C   0  0  0  0  0  0  0  0  0  0  0  0
    2.6349    2.3172    0.0000 C   0  0  0  0  0  0  0  0  0  0  0  0
    1.7677    1.8166    0.0000 C   0  0  0  0  0  0  0  0  0  0  0  0
    6.1035    2.3172    0.0000 C   0  0  0  0  0  0  0  0  0  0  0  0
 11 10  1  0     0  0
 14 10  1  0     0  0
  9 10  1  0     0  0
 10 15  1  1     0  0
 23 11  1  0     0  0
 12 11  1  0     0  0
 11 17  1  6     0  0
  8 20  1  0     0  0
  7 20  1  0     0  0
 23 20  1  0     0  0
 25 23  1  0     0  0
  5  7  1  0     0  0
  7 16  1  1     0  0
  1  7  1  0     0  0
 13 14  1  0     0  0
 31 14  1  0     0  0
 14 18  1  6     0  0
  8  9  1  0     0  0
 13 12  1  0     0  0
  6 25  1  0     0  0
  4  5  1  0     0  0
  6  5  2  0     0  0
  2  1  1  0     0  0
  3  4  1  0     0  0
  3  2  1  0     0  0
  3 19  1  1     0  0
 20 21  1  6     0  0
 31 22  1  6     0  0
 23 24  1  1     0  0
 30 26  1  0     0  0
 27 26  1  0     0  0
 28 27  1  0     0  0
 29 28  1  0     0  0
 32 28  1  0     0  0
 30 31  1  0     0  0
M  END
> <ID>
CHEBI:16113

> <NAME>
cholesterol

> <DEFINITION>
A cholestanoid consisting of cholestane having a double bond at the 5,6-position as well as a 3β-hydroxy group.

> <STAR>
3

> <SECONDARY_ID>
CHEBI:41564; CHEBI:3659; CHEBI:13982; CHEBI:23204

> <SYNONYM>
cholesterol; CHOLESTEROL; Cholesterol; Cholesterin; Cholest-5-en-3beta-ol; (3beta,14beta,17alpha)-cholest-5-en-3-ol

> <IUPAC_NAME>
cholest-5-en-3beta-ol

> <FORMULA>
C27H46O

> <MASS>
386.655

> <MONOISOTOPIC_MASS>
386.35487

> <CHARGE>
0

> <SMILES>
C1[C@@]2([C@]3(CC[C@]4([C@]([C@@]3(CC=C2C[C@H](C1)O)[H])(CC[C@@]4([C@H](C)CCCC(C)C)[H])[H])C)[H])C

> <INCHI>
InChI=1S/C27H46O/c1-18(2)7-6-8-19(3)23-11-12-24-22-10-9-20-17-21(28)13-15-26(20,4)25(22)14-16-27(23,24)5/h9,18-19,21-25,28H,6-8,10-17H2,1-5H3/t19-,21+,22+,23-,24+,25+,26+,27-/m1/s1

> <INCHIKEY>
HVYWMOMLDIMFJA-DPAQBDIFSA-N

> <BEILSTEIN_REGISTRY_NUMBER>
2060565

> <CAS_REGISTRY_NUMBER>
57-88-5

> <GMELIN_REGISTRY_NUMBER>
550297

> <REAXYS_REGISTRY_NUMBER>
2060565

> <CHEMIDPLUS>
57-88-5

> <DRUGBANK_ACCESSION>
DB04540

> <HMDB_ACCESSION>
HMDB0000067

> <KEGG_COMPOUND_ACCESSION>
C00187

> <KEGG_DRUG_ACCESSION>
D00040

> <KNAPSACK_ACCESSION>
C00003648

> <LIPID_MAPS_INSTANCE_ACCESSION>
LMST01010001

> <METACYC_ACCESSION>
CHOLESTEROL

> <NIST_CHEMISTRY_WEBBOOK>
57-88-5

> <PDBECHEM_ACCESSION>
CLR

> <WIKIPEDIA_ACCESSION>
Cholesterol

> <PUBMED_CITATION>
10901445; 11412894; 16341241; 24287311; 25308664; 25451949; 25522988; 25658343; 25977713; 4696527; 8838010

$$$$

Marvin  02251316252D          

 20 19  0  0  0  0            999 V2000
   12.7719   -9.4830    0.0000 C   0  0  0  0  0  0  0  0  0  0  0  0
   11.6201  -10.1479    0.0000 C   0  0  0  0  0  0  0  0  0  0  0  0
   21.9867   -9.4836    0.0000 C   0  0  0  0  0  0  0  0  0  0  0  0
   20.8348  -10.1485    0.0000 C   0  0  0  0  0  0  0  0  0  0  0  0
   21.9867   -8.1536    0.0000 O   0  0  0  0  0  0  0  0  0  0  0  0
   19.6829   -9.4835    0.0000 C   0  0  0  0  0  0  0  0  0  0  0  0
   18.5310  -10.1483    0.0000 C   0  0  0  0  0  0  0  0  0  0  0  0
   17.3793   -9.4833    0.0000 C   0  0  0  0  0  0  0  0  0  0  0  0
   16.2274  -10.1482    0.0000 C   0  0  0  0  0  0  0  0  0  0  0  0
   15.0755   -9.4832    0.0000 C   0  0  0  0  0  0  0  0  0  0  0  0
   13.9236  -10.1480    0.0000 C   0  0  0  0  0  0  0  0  0  0  0  0
   23.1384  -10.1487    0.0000 O   0  0  0  0  0  0  0  0  0  0  0  0
   11.6200  -11.4781    0.0000 C   0  0  0  0  0  0  0  0  0  0  0  0
   12.7717  -12.1432    0.0000 C   0  0  0  0  0  0  0  0  0  0  0  0
   13.9236  -11.4783    0.0000 C   0  0  0  0  0  0  0  0  0  0  0  0
   15.0755  -12.1434    0.0000 C   0  0  0  0  0  0  0  0  0  0  0  0
   16.2273  -11.4783    0.0000 C   0  0  0  0  0  0  0  0  0  0  0  0
   17.3791  -12.1435    0.0000 C   0  0  0  0  0  0  0  0  0  0  0  0
   18.5310  -11.4786    0.0000 C   0  0  0  0  0  0  0  0  0  0  0  0
   19.6829  -12.1437    0.0000 C   0  0  0  0  0  0  0  0  0  0  0  0
 11  1  1  0  0  0  0
  1  2  2  0  0  0  0
 13  2  1  0  0  0  0
  3  4  1  0  0  0  0
  3  5  2  0  0  0  0
  3 12  1  0  0  0  0
  4  6  1  0  0  0  0
  6  7  1  0  0  0  0
  7  8  1  0  0  0  0
  8  9  1  0  0  0  0
  9 10  1  0  0  0  0
 10 11  1  0  0  0  0
 14 13  1  0  0  0  0
 15 14  1  0  0  0  0
 16 15  1  0  0  0  0
 17 16  1  0  0  0  0
 18 17  1  0  0  0  0
 19 18  1  0  0  0  0
 20 19  1  0  0  0  0
M  END
> <ID>
CHEBI:16196

> <NAME>
oleic acid

> <DEFINITION>
An octadec-9-enoic acid in which the double bond at C-9 has Z (cis) stereochemistry.

> <STAR>
3

> <SECONDARY_ID>
CHEBI:44741; CHEBI:104361; CHEBI:7741; CHEBI:25664

> <SYNONYM>
Oelsaeure; OLEIC ACID; Oleic acid; Oleate; Oelsaeure; Octadec-9-enoic acid; FA 18:1; cis-oleic acid; cis-Delta(9)-octadecenoic acid; cis-9-octadecenoic acid; C18:1 n-9; 18:1Delta9cis; 18:1 n-9; (Z)-Octadec-9-enoic acid; (9Z)-Octadecenoic acid

> <IUPAC_NAME>
(9Z)-octadec-9-enoic acid

> <FORMULA>
C18H34O2

> <MASS>
282.46140

> <MONOISOTOPIC_MASS>
282.25588

> <CHARGE>
0

> <SMILES>
CCCCCCCC\C=C/CCCCCCCC(O)=O

> <INCHI>
InChI=1S/C18H34O2/c1-2-3-4-5-6-7-8-9-10-11-12-13-14-15-16-17-18(19)20/h9-10H,2-8,11-17H2,1H3,(H,19,20)/b10-9-

> <INCHIKEY>
ZQPPMHVWECSIRJ-KTKRTIGZSA-N

> <BEILSTEIN_REGISTRY_NUMBER>
1726542

> <CAS_REGISTRY_NUMBER>
112-80-1

> <GMELIN_REGISTRY_NUMBER>
57556

> <REAXYS_REGISTRY_NUMBER>
1726542

> <CHEMIDPLUS>
112-80-1

> <DRUGBANK_ACCESSION>
DB04224

> <ECMDB_ACCESSION>
ECMDB21348

> <HMDB_ACCESSION>
HMDB0000207

> <KEGG_COMPOUND_ACCESSION>
C00712

> <KEGG_DRUG_ACCESSION>
D02315

> <KNAPSACK_ACCESSION>
C00001232

> <LIPID_MAPS_INSTANCE_ACCESSION>
LMFA01030002

> <NIST_CHEMISTRY_WEBBOOK>
112-80-1

> <PDBECHEM_ACCESSION>
OLA

> <WIKIPEDIA_ACCESSION>
Oleic_acid

> <PUBMED_CITATION>
11304127; 15325315; 15723125; 18772370; 19761868; 23844805; 24819471; 25584012; 25794012; 5332408; 6205897

$$$$

Marvin  08110814042D          

 16 16  0  0  1  0            999 V2000
   -0.7145    0.4125    0.0000 C   0  0  1  0  0  0  0  0  0  0  0  0
    0.0000    0.8250    0.0000 O   0  0  0  0  0  0  0  0  0  0  0  0
    0.7145    0.4125    0.0000 C   0  0  2  0  0  0  0  0  0  0  0  0
    0.7145   -0.4125    0.0000 C   0  0  1  0  0  0  0  0  0  0  0  0
    0.0000   -0.8250    0.0000 C   0  0  2  0  0  0  0  0  0  0  0  0
   -0.7145   -0.4125    0.0000 C   0  0  2  0  0  0  0  0  0  0  0  0
    1.4289   -0.8250    0.0000 O   0  0  0  0  0  0  0  0  0  0  0  0
    0.0000   -1.6500    0.0000 O   0  0  0  0  0  0  0  0  0  0  0  0
   -1.4289   -0.8250    0.0000 O   0  0  0  0  0  0  0  0  0  0  0  0
   -1.4289    0.8250    0.0000 C   0  0  0  0  0  0  0  0  0  0  0  0
   -2.1434    0.4125    0.0000 O   0  0  0  0  0  0  0  0  0  0  0  0
    1.4289    0.8250    0.0000 O   0  0  0  0  0  0  0  0  0  0  0  0
    2.1434   -0.4125    0.0000 O   0  0  0  0  0  0  0  0  0  0  0  0
    2.1434    1.2375    0.0000 O   0  0  0  0  0  0  0  0  0  0  0  0
    2.1434    0.4125    0.0000 P   0  0  3  0  0  0  0  0  0  0  0  0
    2.8579    0.8250    0.0000 O   0  0  0  0  0  0  0  0  0  0  0  0
  1 10  1  1  0  0  0
  1  2  1  0  0  0  0
  3  2  1  0  0  0  0
  3 12  1  1  0  0  0
  3  4  1  0  0  0  0
  4  7  1  6  0  0  0
  4  5  1  0  0  0  0
  5  8  1  1  0  0  0
  5  6  1  0  0  0  0
  6  1  1  0  0  0  0
  6  9  1  6  0  0  0
 10 11  1  0  0  0  0
 15 12  1  0  0  0  0
 13 15  2  0  0  0  0
 15 14  1  0  0  0  0
 15 16  1  0  0  0  0
M  END
> <ID>
CHEBI:16218

> <NAME>
beta-D-glucose 1-phosphate

> <DEFINITION>
The β-anomer of D-glucose 1-phosphate.

> <STAR>
3

> <SECONDARY_ID>
CHEBI:10398; CHEBI:12374; CHEBI:8142; CHEBI:22796; CHEBI:26049; CHEBI:28149

> <SYNONYM>
beta-D-Glucose 1-phosphate; 1-phospho-beta-D-glucopyranose; 1-O-phosphono-beta-D-glucopyranose

> <IUPAC_NAME>
beta-D-glucopyranose 1-(dihydrogen phosphate)

> <FORMULA>
C6H13O9P

> <MASS>
260.13578

> <MONOISOTOPIC_MASS>
260.02972

> <CHARGE>
0

> <SMILES>
OC[C@H]1O[C@@H](OP(O)(O)=O)[C@H](O)[C@@H](O)[C@@H]1O

> <INCHI>
InChI=1S/C6H13O9P/c7-1-2-3(8)4(9)5(10)6(14-2)15-16(11,12)13/h2-10H,1H2,(H2,11,12,13)/t2-,3-,4+,5-,6+/m1/s1

> <INCHIKEY>
HXXFSFRBOHSIMQ-DVKNGEFBSA-N

> <BEILSTEIN_REGISTRY_NUMBER>
87850

> <REAXYS_REGISTRY_NUMBER>
87850

> <KEGG_COMPOUND_ACCESSION>
C00663

> <METACYC_ACCESSION>
CPD-448

> <WIKIPEDIA_ACCESSION>
Glucose-1-phosphate

$$$$

Mrv0541 03041409252D          

  6  6  0  0  0  0            999 V2000
    1.8695    0.5127    0.0000 C   0  0  0  0  0  0  0  0  0  0  0  0
    1.1550    0.1002    0.0000 C   0  0  0  0  0  0  0  0  0  0  0  0
    2.5840    0.1002    0.0000 C   0  0  0  0  0  0  0  0  0  0  0  0
    2.5840   -0.7248    0.0000 C   0  0  0  0  0  0  0  0  0  0  0  0
    1.8695   -1.1372    0.0000 N   0  0  0  0  0  0  0  0  0  0  0  0
    1.1550   -0.7248    0.0000 C   0  0  0  0  0  0  0  0  0  0  0  0
  1  2  1  0  0  0  0
  3  1  2  0  0  0  0
  4  3  1  0  0  0  0
  5  4  2  0  0  0  0
  6  5  1  0  0  0  0
  6  2  2  0  0  0  0
M  END
> <ID>
CHEBI:16227

> <NAME>
pyridine

> <DEFINITION>
An  azaarene comprising a benzene core in which one -CH group is replaced by a nitrogen atom. It is the parent compound of the class pyridines.

> <STAR>
3

> <SECONDARY_ID>
CHEBI:8662; CHEBI:14974; CHEBI:26415

> <SYNONYM>
pyridine; Pyridine; py; Azabenzene

> <IUPAC_NAME>
pyridine

> <FORMULA>
C5H5N

> <MASS>
79.09990

> <MONOISOTOPIC_MASS>
79.04220

> <CHARGE>
0

> <SMILES>
c1ccncc1

> <INCHI>
InChI=1S/C5H5N/c1-2-4-6-5-3-1/h1-5H

> <INCHIKEY>
JUJWROOIHBZHMG-UHFFFAOYSA-N

> <BEILSTEIN_REGISTRY_NUMBER>
103233

> <CAS_REGISTRY_NUMBER>
110-86-1

> <GMELIN_REGISTRY_NUMBER>
1996

> <REAXYS_REGISTRY_NUMBER>
103233

> <CHEMIDPLUS>
110-86-1

> <HMDB_ACCESSION>
HMDB0000926

> <KEGG_COMPOUND_ACCESSION>
C00747

> <NIST_CHEMISTRY_WEBBOOK>
110-86-1

> <PDBECHEM_ACCESSION>
0PY

> <WIKIPEDIA_ACCESSION>
Pyridine

> <PUBMED_CITATION>
24364496; 24425539; 8070089

$$$$

Ketcher 03131712202D 1   1.00000     0.00000     0

 11 12  0     0  0            999 V2000
    0.4744    0.4091    0.0000 C   0  0  0  0  0  0  0  0  0  0  0  0
    0.4744   -0.5909    0.0000 C   0  0  0  0  0  0  0  0  0  0  0  0
   -0.3915    0.9091    0.0000 C   0  0  0  0  0  0  0  0  0  0  0  0
    1.4256    0.7181    0.0000 N   0  0  0  0  0  0  0  0  0  0  0  0
   -0.3915   -1.0909    0.0000 N   0  0  0  0  0  0  0  0  0  0  0  0
    2.0133   -0.0909    0.0000 C   0  0  0  0  0  0  0  0  0  0  0  0
    1.4256   -0.8999    0.0000 N   0  0  0  0  0  0  0  0  0  0  0  0
   -1.2576   -0.5909    0.0000 C   0  0  0  0  0  0  0  0  0  0  0  0
   -2.1236   -1.0909    0.0000 N   0  0  0  0  0  0  0  0  0  0  0  0
   -0.3915    1.9091    0.0000 O   0  0  0  0  0  0  0  0  0  0  0  0
   -1.2576    0.4091    0.0000 N   0  0  0  0  0  0  0  0  0  0  0  0
  1  2  2  0     0  0
  1  3  1  0     0  0
  1  4  1  0     0  0
  2  5  1  0     0  0
  2  7  1  0     0  0
  3 11  1  0     0  0
  3 10  2  0     0  0
  4  6  2  0     0  0
  5  8  2  0     0  0
  7  6  1  0     0  0
 11  8  1  0     0  0
  8  9  1  0     0  0
M  END
> <ID>
CHEBI:16235

> <NAME>
guanine

> <DEFINITION>
A 2-aminopurine carrying a 6-oxo substituent.

> <STAR>
3

> <SECONDARY_ID>
CHEBI:42948; CHEBI:14371; CHEBI:14372; CHEBI:24443; CHEBI:5563

> <SYNONYM>
guanine; GUANINE; Guanine; Gua; G; 2-amino-6-oxopurine; 2-Amino-6-hydroxypurine

> <IUPAC_NAME>
2-amino-1,9-dihydro-6H-purin-6-one

> <FORMULA>
C5H5N5O; C5H5N5O

> <MASS>
151.126

> <MONOISOTOPIC_MASS>
151.04941

> <CHARGE>
0

> <SMILES>
C12=C(N=C(NC1=O)N)NC=N2

> <INCHI>
InChI=1S/C5H5N5O/c6-5-9-3-2(4(11)10-5)7-1-8-3/h1H,(H4,6,7,8,9,10,11)

> <INCHIKEY>
UYTPUPDQBNUYGX-UHFFFAOYSA-N

> <BEILSTEIN_REGISTRY_NUMBER>
147911

> <CAS_REGISTRY_NUMBER>
73-40-5

> <GMELIN_REGISTRY_NUMBER>
431879

> <REAXYS_REGISTRY_NUMBER>
147911

> <CHEMIDPLUS>
73-40-5

> <DRUGBANK_ACCESSION>
DB02377

> <HMDB_ACCESSION>
HMDB0000132

> <KEGG_COMPOUND_ACCESSION>
C00242

> <KNAPSACK_ACCESSION>
C00001501

> <METACYC_ACCESSION>
GUANINE

> <NIST_CHEMISTRY_WEBBOOK>
73-40-5

> <PDBECHEM_ACCESSION>
GUN

> <WIKIPEDIA_ACCESSION>
Guanine

> <PUBMED_CITATION>
22770225; 8070089

$$$$

Marvin  02050813532D          

 14 13  0  0  0  0            999 V2000
    2.1434    0.2292    0.0000 P   0  0  3  0  0  0  0  0  0  0  0  0
    1.4289   -0.1833    0.0000 O   0  0  0  0  0  0  0  0  0  0  0  0
    2.8579   -0.1833    0.0000 O   0  0  0  0  0  0  0  0  0  0  0  0
   -2.1434    0.2292    0.0000 C   0  0  0  0  0  0  0  0  0  0  0  0
   -2.8579   -0.1833    0.0000 O   0  0  0  0  0  0  0  0  0  0  0  0
   -1.4289   -0.1833    0.0000 C   0  0  1  0  0  0  0  0  0  0  0  0
   -0.7145    0.2292    0.0000 C   0  0  1  0  0  0  0  0  0  0  0  0
    0.0000   -0.1833    0.0000 C   0  0  1  0  0  0  0  0  0  0  0  0
    0.7145    0.2292    0.0000 C   0  0  0  0  0  0  0  0  0  0  0  0
    2.1434    1.0541    0.0000 O   0  0  0  0  0  0  0  0  0  0  0  0
   -1.4288   -1.0084    0.0000 O   0  0  0  0  0  0  0  0  0  0  0  0
   -0.7144    1.0541    0.0000 O   0  0  0  0  0  0  0  0  0  0  0  0
    0.0001   -1.0083    0.0000 O   0  0  0  0  0  0  0  0  0  0  0  0
    2.1434   -0.5958    0.0000 O   0  0  0  0  0  0  0  0  0  0  0  0
  1 10  2  0  0  0  0
  1 14  1  0  0  0  0
  2  1  1  0  0  0  0
  1  3  1  0  0  0  0
  4  5  1  0  0  0  0
  4  6  1  0  0  0  0
  6 11  1  1  0  0  0
  6  7  1  0  0  0  0
  7 12  1  6  0  0  0
  7  8  1  0  0  0  0
  8 13  1  1  0  0  0
  9  2  1  0  0  0  0
  8  9  1  0  0  0  0
M  END
> <ID>
CHEBI:16246

> <NAME>
D-ribitol 5-phosphate

> <DEFINITION>
The 5-phospho derivative of D-ribitol.

> <STAR>
3

> <SECONDARY_ID>
CHEBI:44693; CHEBI:45310; CHEBI:45311; CHEBI:4231; CHEBI:13009; CHEBI:21075

> <SYNONYM>
Ribitol 5-phosphate; Rbt-5-P; L-Ribitol 1-phosphate; D-Ribitol 5-phosphate

> <IUPAC_NAME>
D-ribitol 5-(dihydrogen phosphate); 5-O-phosphono-D-ribitol

> <FORMULA>
C5H13O8P

> <MASS>
232.12568

> <MONOISOTOPIC_MASS>
232.03480

> <CHARGE>
0

> <SMILES>
OC[C@H](O)[C@H](O)[C@H](O)COP(O)(O)=O

> <INCHI>
InChI=1S/C5H13O8P/c6-1-3(7)5(9)4(8)2-13-14(10,11)12/h3-9H,1-2H2,(H2,10,11,12)/t3-,4+,5-/m0/s1

> <INCHIKEY>
VJDOAZKNBQCAGE-LMVFSUKVSA-N

> <KEGG_COMPOUND_ACCESSION>
C01068

> <PDBECHEM_ACCESSION>
R5P

> <PUBMED_CITATION>
25108762

$$$$

Marvin  04240612262D          

 19 21  0  0  1  0            999 V2000
    0.9372   -0.2267    0.0000 N   0  0  0  0  0  0  0  0  0  0  0  0
    0.9372   -1.0517    0.0000 C   0  0  0  0  0  0  0  0  0  0  0  0
    0.2227   -1.4642    0.0000 N   0  0  0  0  0  0  0  0  0  0  0  0
    0.2226   -2.2892    0.0000 C   0  0  0  0  0  0  0  0  0  0  0  0
    0.9371   -2.7017    0.0000 N   0  0  0  0  0  0  0  0  0  0  0  0
    1.6516   -2.2892    0.0000 C   0  0  0  0  0  0  0  0  0  0  0  0
    1.6516   -1.4642    0.0000 C   0  0  0  0  0  0  0  0  0  0  0  0
    2.4362   -1.2093    0.0000 N   0  0  0  0  0  0  0  0  0  0  0  0
    2.9212   -1.8768    0.0000 C   0  0  0  0  0  0  0  0  0  0  0  0
    2.4362   -2.5442    0.0000 N   0  0  0  0  0  0  0  0  0  0  0  0
    2.6912   -3.3290    0.0000 C   0  0  2  0  0  0  0  0  0  0  0  0
    2.2062   -3.9963    0.0000 O   0  0  0  0  0  0  0  0  0  0  0  0
    2.6911   -4.6639    0.0000 C   0  0  2  0  0  0  0  0  0  0  0  0
    2.4361   -5.4485    0.0000 C   0  0  0  0  0  0  0  0  0  0  0  0
    2.9882   -6.0616    0.0000 O   0  0  0  0  0  0  0  0  0  0  0  0
    3.4757   -4.4089    0.0000 C   0  0  1  0  0  0  0  0  0  0  0  0
    4.1432   -4.8939    0.0000 O   0  0  0  0  0  0  0  0  0  0  0  0
    3.4758   -3.5839    0.0000 C   0  0  1  0  0  0  0  0  0  0  0  0
    4.1432   -3.0990    0.0000 O   0  0  0  0  0  0  0  0  0  0  0  0
  1  2  1  0  0  0  0
  2  3  1  0  0  0  0
  2  7  2  0  0  0  0
  3  4  2  0  0  0  0
  4  5  1  0  0  0  0
  5  6  2  0  0  0  0
  6  7  1  0  0  0  0
  6 10  1  0  0  0  0
  7  8  1  0  0  0  0
  8  9  2  0  0  0  0
  9 10  1  0  0  0  0
 11 10  1  1  0  0  0
 11 12  1  0  0  0  0
 11 18  1  0  0  0  0
 12 13  1  0  0  0  0
 13 14  1  1  0  0  0
 13 16  1  0  0  0  0
 14 15  1  0  0  0  0
 16 17  1  6  0  0  0
 16 18  1  0  0  0  0
 18 19  1  6  0  0  0
M  END
> <ID>
CHEBI:16335

> <NAME>
adenosine

> <DEFINITION>
A ribonucleoside composed of a molecule of adenine attached to a ribofuranose moiety via a β‒N9-glycosidic bond.

> <STAR>
3

> <SECONDARY_ID>
CHEBI:2472; CHEBI:40558; CHEBI:40825; CHEBI:40906; CHEBI:40911; CHEBI:13734; CHEBI:22237

> <SYNONYM>
Desoxyadenosine; Deoxyadenosine; beta-D-Adenosine; Ado; Adenyldeoxyriboside; adenosine; Adenosine; ADENOSINE; Adenosin; Adenine Deoxyribonucleoside; Ade-Rib; 9-beta-D-Ribofuranosyl-9H-purin-6-amine; 9-beta-D-ribofuranosyl-9H-purin-6-amine; 9-beta-D-Ribofuranosidoadenine; 6-Amino-9-beta-D-ribofuranosyl-9H-purine; (2R,3R,4S,5R)-2-(6-aminopurin-9-yl)-5-(hydroxymethyl)oxolane-3,4-diol

> <IUPAC_NAME>
adenosine

> <BRAND_NAME>
Adenoscan; Adenocor; Adenocard

> <FORMULA>
C10H13N5O4

> <MASS>
267.24152

> <MONOISOTOPIC_MASS>
267.09675

> <CHARGE>
0

> <SMILES>
Nc1ncnc2n(cnc12)[C@@H]1O[C@H](CO)[C@@H](O)[C@H]1O

> <INCHI>
InChI=1S/C10H13N5O4/c11-8-5-9(13-2-12-8)15(3-14-5)10-7(18)6(17)4(1-16)19-10/h2-4,6-7,10,16-18H,1H2,(H2,11,12,13)/t4-,6-,7-,10-/m1/s1

> <INCHIKEY>
OIRDTQYFTABQOQ-KQYNXXCUSA-N

> <BEILSTEIN_REGISTRY_NUMBER>
93029

> <CAS_REGISTRY_NUMBER>
58-61-7

> <GMELIN_REGISTRY_NUMBER>
53385

> <REAXYS_REGISTRY_NUMBER>
93029

> <CHEMIDPLUS>
58-61-7

> <DRUGBANK_ACCESSION>
DB00640

> <ECMDB_ACCESSION>
ECMDB00050

> <HMDB_ACCESSION>
HMDB0000050

> <KEGG_COMPOUND_ACCESSION>
C00212

> <KEGG_DRUG_ACCESSION>
D00045

> <KNAPSACK_ACCESSION>
C00007444

> <LINCS_ACCESSION>
LSM-28568

> <METACYC_ACCESSION>
ADENOSINE

> <NIST_CHEMISTRY_WEBBOOK>
58-61-7

> <PDBECHEM_ACCESSION>
ADN

> <WIKIPEDIA_ACCESSION>
Adenosine

> <YMDB_ACCESSION>
YMDB00058

> <PUBMED_CITATION>
11213237; 11820865; 11978011; 16183671; 16917093; 17190852; 18000974; 323854

$$$$
ChEBI


 14 14  0  0  0  0  0  0  0  0  1 V2000
   17.1724   -7.1124    0.0000 C   0  0  0  0  0  0  0  0  0  0  0  0
   17.1724   -5.7825    0.0000 O   0  0  0  0  0  0  0  0  0  0  0  0
   16.0206   -7.7774    0.0000 C   0  0  0  0  0  0  0  0  0  0  0  0
   14.8687   -7.1126    0.0000 C   0  0  0  0  0  0  0  0  0  0  0  0
   16.0206   -9.1074    0.0000 N   0  0  0  0  0  0  0  0  0  0  0  0
   13.7167   -7.7772    0.0000 C   0  0  0  0  0  0  0  0  0  0  0  0
   12.4517   -7.3668    0.0000 N   0  0  0  0  0  0  0  0  0  0  0  0
   11.6705   -8.4433    0.0000 C   0  0  0  0  0  0  0  0  0  0  0  0
   12.4527   -9.5189    0.0000 N   0  0  0  0  0  0  0  0  0  0  0  0
   13.7175   -9.1072    0.0000 C   0  0  0  0  0  0  0  0  0  0  0  0
   18.3242   -7.7774    0.0000 O   0  0  0  0  0  0  0  0  0  0  0  0
   17.1724   -9.7724    0.0000 C   0  0  0  0  0  0  0  0  0  0  0  0
   18.3242   -9.1074    0.0000 O   0  0  0  0  0  0  0  0  0  0  0  0
   17.1724  -11.1024    0.0000 C   0  0  0  0  0  0  0  0  0  0  0  0
  1  2  2  0  0  0  0
  1  3  1  0  0  0  0
  3  4  1  0  0  0  0
  3  5  1  1  0  0  0
  4  6  1  0  0  0  0
  6  7  1  0  0  0  0
  6 10  2  0  0  0  0
  7  8  1  0  0  0  0
  8  9  2  0  0  0  0
  9 10  1  0  0  0  0
 11  1  1  0  0  0  0
 13 12  2  0  0  0  0
 14 12  1  0  0  0  0
  5 12  1  0  0  0  0
M  END
> <ID>
CHEBI:16437

> <NAME>
N-acetyl-L-histidine

> <DEFINITION>
A  histidine derivative that is L-histidine having an acetyl substituent on the α-nitrogen.

> <STAR>
3

> <SECONDARY_ID>
CHEBI:12462; CHEBI:7153; CHEBI:21554

> <SYNONYM>
N-Hydroxy-aabp; N-alpha-L-histidine; N-Acetylhistidine; N-Acetyl-L-histidine; N-acetyl histidine

> <IUPAC_NAME>
N(2)-acetyl-L-histidine

> <FORMULA>
C8H11N3O3

> <MASS>
197.19136

> <MONOISOTOPIC_MASS>
197.08004

> <CHARGE>
0

> <SMILES>
CC(=O)N[C@@H](Cc1cnc[nH]1)C(O)=O

> <INCHI>
InChI=1S/C8H11N3O3/c1-5(12)11-7(8(13)14)2-6-3-9-4-10-6/h3-4,7H,2H2,1H3,(H,9,10)(H,11,12)(H,13,14)/t7-/m0/s1

> <INCHIKEY>
KBOJOGQFRVVWBH-ZETCQYMHSA-N

> <CAS_REGISTRY_NUMBER>
2497-02-1

> <REAXYS_REGISTRY_NUMBER>
748618

> <CHEMIDPLUS>
2497-02-1

> <HMDB_ACCESSION>
HMDB0032055

> <KEGG_COMPOUND_ACCESSION>
C02997

> <METACYC_ACCESSION>
CPD-424

> <PUBMED_CITATION>
26800898; 5949241; 7357028; 9084403; 9770642

$$$$

Marvin  12110715172D          

 19 19  0  0  1  0            999 V2000
    0.7145    0.4125    0.0000 C   0  0  1  0  0  0  0  0  0  0  0  0
    0.0000    0.8250    0.0000 O   0  0  0  0  0  0  0  0  0  0  0  0
    0.7145   -0.4125    0.0000 C   0  0  1  0  0  0  0  0  0  0  0  0
    0.0000   -0.8250    0.0000 C   0  0  2  0  0  0  0  0  0  0  0  0
   -0.7145   -0.4125    0.0000 C   0  0  1  0  0  0  0  0  0  0  0  0
   -0.7145    0.4125    0.0000 C   0  0  1  0  0  0  0  0  0  0  0  0
    1.4289   -0.8250    0.0000 N   0  0  0  0  0  0  0  0  0  0  0  0
    0.0000   -1.6500    0.0000 O   0  0  0  0  0  0  0  0  0  0  0  0
    2.1434   -0.4125    0.0000 C   0  0  0  0  0  0  0  0  0  0  0  0
   -1.4289   -0.8250    0.0000 O   0  0  0  0  0  0  0  0  0  0  0  0
   -1.4289    0.8250    0.0000 C   0  0  0  0  0  0  0  0  0  0  0  0
   -2.1434    0.4125    0.0000 O   0  0  0  0  0  0  0  0  0  0  0  0
    2.1434    0.4125    0.0000 O   0  0  0  0  0  0  0  0  0  0  0  0
    2.8579   -0.8250    0.0000 C   0  0  0  0  0  0  0  0  0  0  0  0
    1.4289    0.8250    0.0000 O   0  0  0  0  0  0  0  0  0  0  0  0
    1.4289    2.4750    0.0000 O   0  0  0  0  0  0  0  0  0  0  0  0
    2.1434    2.0625    0.0000 O   0  0  0  0  0  0  0  0  0  0  0  0
    1.4289    1.6500    0.0000 P   0  0  3  0  0  0  0  0  0  0  0  0
    0.7145    2.0625    0.0000 O   0  0  0  0  0  0  0  0  0  0  0  0
  1 15  1  6  0  0  0
  1  2  1  0  0  0  0
  3  1  1  0  0  0  0
  3  7  1  6  0  0  0
  3  4  1  0  0  0  0
  4  8  1  1  0  0  0
  4  5  1  0  0  0  0
  5 10  1  6  0  0  0
  5  6  1  0  0  0  0
  2  6  1  0  0  0  0
  6 11  1  1  0  0  0
  7  9  1  0  0  0  0
  9 13  2  0  0  0  0
  9 14  1  0  0  0  0
 11 12  1  0  0  0  0
 15 18  1  0  0  0  0
 18 16  2  0  0  0  0
 18 17  1  0  0  0  0
 18 19  1  0  0  0  0
M  END
> <ID>
CHEBI:16446

> <NAME>
N-acetyl-alpha-D-glucosamine 1-phosphate

> <DEFINITION>
A 2-acetamido-2-deoxy-D-glucopyranose 1-phosphate having α-configuration at the anomeric centre.

> <STAR>
3

> <SECONDARY_ID>
CHEBI:12443; CHEBI:28742; CHEBI:42925; CHEBI:12542; CHEBI:21573; CHEBI:7163

> <SYNONYM>
N-acetylglucosamine-1-phosphate; N-acetyl-alpha-D-glucosamine 1-phosphate; N-Acetyl-alpha-D-glucosamine 1-phosphate; N-acetyl-alpha-D-glucosamine 1-(dihydrogen phosphate); GlcNAc1alpha-phosphate; alpha-GlcNAc-1-P; alpha-GlcNAc-(1->O)PO3H2; 2-N-acetylglucosamine 1-phosphate; 2-acetamido-2-deoxy-1-O-phosphono-alpha-D-glucopyranose; 2-(ACETYLAMINO)-2-DEOXY-1-O-PHOSPHONO-ALPHA-D-GLUCOPYRANOSE; 1-(N-acetyl-alpha-D-glucosamine) phosphate

> <IUPAC_NAME>
2-acetamido-2-deoxy-alpha-D-glucopyranose 1-(dihydrogen phosphate)

> <FORMULA>
C8H16NO9P

> <MASS>
301.18774

> <MONOISOTOPIC_MASS>
301.05627

> <CHARGE>
0

> <SMILES>
CC(=O)N[C@@H]1[C@@H](O)[C@H](O)[C@@H](CO)O[C@@H]1OP(O)(O)=O

> <INCHI>
InChI=1S/C8H16NO9P/c1-3(11)9-5-7(13)6(12)4(2-10)17-8(5)18-19(14,15)16/h4-8,10,12-13H,2H2,1H3,(H,9,11)(H2,14,15,16)/t4-,5-,6-,7-,8-/m1/s1

> <INCHIKEY>
FZLJPEPAYPUMMR-FMDGEEDCSA-N

> <BEILSTEIN_REGISTRY_NUMBER>
39843

> <REAXYS_REGISTRY_NUMBER>
39843

> <HMDB_ACCESSION>
HMDB0001367

> <KEGG_COMPOUND_ACCESSION>
C04501

> <PDBECHEM_ACCESSION>
GN1

> <PUBMED_CITATION>
12626405; 18048019

$$$$

Marvin  11060615322D          

 12 11  0  0  1  0            999 V2000
    2.0243    0.9625    0.0000 O   0  0  0  0  0  0  0  0  0  0  0  0
    2.0243    0.1375    0.0000 C   0  0  0  0  0  0  0  0  0  0  0  0
    2.7388   -0.2750    0.0000 O   0  0  0  0  0  0  0  0  0  0  0  0
    1.3099   -0.2750    0.0000 C   0  0  1  0  0  0  0  0  0  0  0  0
    1.3099   -1.1000    0.0000 N   0  0  0  0  0  0  0  0  0  0  0  0
    0.5954    0.1375    0.0000 C   0  0  0  0  0  0  0  0  0  0  0  0
   -0.1191   -0.2750    0.0000 C   0  0  0  0  0  0  0  0  0  0  0  0
   -0.8335    0.1375    0.0000 C   0  0  0  0  0  0  0  0  0  0  0  0
   -1.5480   -0.2750    0.0000 N   0  0  0  0  0  0  0  0  0  0  0  0
   -2.2625    0.1375    0.0000 C   0  0  0  0  0  0  0  0  0  0  0  0
   -2.2625    0.9625    0.0000 N   0  0  0  0  0  0  0  0  0  0  0  0
   -2.9770   -0.2750    0.0000 N   0  0  0  0  0  0  0  0  0  0  0  0
  2  1  2  0  0  0  0
  3  2  1  0  0  0  0
  4  2  1  0  0  0  0
  4  5  1  1  0  0  0
  6  4  1  0  0  0  0
  7  6  1  0  0  0  0
  9  8  1  0  0  0  0
  7  8  1  0  0  0  0
 10  9  1  0  0  0  0
 11 10  2  0  0  0  0
 12 10  1  0  0  0  0
M  END
> <ID>
CHEBI:16467

> <NAME>
L-arginine

> <DEFINITION>
An L-α-amino acid that is the L-isomer of arginine.

> <STAR>
3

> <SECONDARY_ID>
CHEBI:6185; CHEBI:13077; CHEBI:42927; CHEBI:21235

> <SYNONYM>
R; L-Arginine; L-Arginin; L-Arg; L-(+)-arginine; Arg; (S)-2-Amino-5-guanidinovaleric acid; (S)-2-amino-5-guanidinopentanoic acid; (2S)-2-amino-5-guanidinopentanoic acid; (2S)-2-amino-5-(carbamimidamido)pentanoic acid

> <IUPAC_NAME>
L-arginine

> <INN>
arginine

> <FORMULA>
C6H14N4O2

> <MASS>
174.20100

> <MONOISOTOPIC_MASS>
174.11168

> <CHARGE>
0

> <SMILES>
N[C@@H](CCCNC(N)=N)C(O)=O

> <INCHI>
InChI=1S/C6H14N4O2/c7-4(5(11)12)2-1-3-10-6(8)9/h4H,1-3,7H2,(H,11,12)(H4,8,9,10)/t4-/m0/s1

> <INCHIKEY>
ODKSFYDXXFIFQN-BYPYZUCNSA-N

> <BEILSTEIN_REGISTRY_NUMBER>
1725413

> <CAS_REGISTRY_NUMBER>
74-79-3

> <GMELIN_REGISTRY_NUMBER>
83283

> <REAXYS_REGISTRY_NUMBER>
1725413

> <CHEMIDPLUS>
74-79-3

> <DRUGBANK_ACCESSION>
DB00125

> <ECMDB_ACCESSION>
ECMDB00517

> <HMDB_ACCESSION>
HMDB0000517

> <KEGG_COMPOUND_ACCESSION>
C00062

> <KEGG_DRUG_ACCESSION>
D02982

> <KNAPSACK_ACCESSION>
C00001340

> <METACYC_ACCESSION>
ARG

> <NIST_CHEMISTRY_WEBBOOK>
74-79-3

> <PDBECHEM_ACCESSION>
GND

> <WIKIPEDIA_ACCESSION>
L-arginine

> <YMDB_ACCESSION>
YMDB00592

> <PUBMED_CITATION>
10848923; 11139824; 11300497; 11898853; 12812828; 15016745; 15465805; 16056256; 16416365; 17168727; 17439666; 19030957; 21600268; 21814794; 22179117; 22243793; 22251130; 22361732; 22425811; 22428068; 22439203; 22553931; 22619480; 22626826; 22652429; 22667467; 22709481; 8070089

$$$$

Marvin  04160809082D          

 23 26  0  0  1  0            999 V2000
   -0.7145    0.8250    0.0000 C   0  0  0  0  0  0  0  0  0  0  0  0
    0.0000    0.4125    0.0000 C   0  0  0  0  0  0  0  0  0  0  0  0
    1.4289   -0.4125    0.0000 C   0  0  0  0  0  0  0  0  0  0  0  0
    0.7145   -0.8250    0.0000 C   0  0  0  0  0  0  0  0  0  0  0  0
    0.0000   -0.4125    0.0000 C   0  0  0  0  0  0  0  0  0  0  0  0
   -0.7145   -0.8250    0.0000 C   0  0  0  0  0  0  0  0  0  0  0  0
   -1.4289    0.4125    0.0000 C   0  0  0  0  0  0  0  0  0  0  0  0
   -1.4289   -0.4125    0.0000 C   0  0  0  0  0  0  0  0  0  0  0  0
    1.4289    0.4125    0.0000 C   0  0  2  0  0  0  0  0  0  0  0  0
    0.7145    0.8250    0.0000 C   0  0  2  0  0  0  0  0  0  0  0  0
    2.9281    0.5700    0.0000 C   0  0  0  0  0  0  0  0  0  0  0  0
    2.9281    1.9049    0.0000 C   0  0  2  0  0  0  0  0  0  0  0  0
    1.4291    2.0625    0.0000 C   0  0  0  0  0  0  0  0  0  0  0  0
    3.4130    1.2374    0.0000 C   0  0  0  0  0  0  0  0  0  0  0  0
    0.7145    1.6500    0.0000 C   0  0  0  0  0  0  0  0  0  0  0  0
    3.1831    2.6895    0.0000 O   0  0  0  0  0  0  0  0  0  0  0  0
   -2.1434   -0.8250    0.0000 O   0  0  0  0  0  0  0  0  0  0  0  0
    1.4290    1.2375    0.0000 H   0  0  0  0  0  0  0  0  0  0  0  0
    0.7145    0.0000    0.0000 H   0  0  0  0  0  0  0  0  0  0  0  0
    2.1434    1.6499    0.0000 C   0  0  2  0  0  0  0  0  0  0  0  0
    2.1435    2.4749    0.0000 C   0  0  0  0  0  0  0  0  0  0  0  0
    2.1434    0.8249    0.0000 C   0  0  2  0  0  0  0  0  0  0  0  0
    2.1434   -0.0001    0.0000 H   0  0  0  0  0  0  0  0  0  0  0  0
  2  1  2  0  0  0  0
  3  4  1  0  0  0  0
  2  5  1  0  0  0  0
  4  5  1  0  0  0  0
  5  6  2  0  0  0  0
  1  7  1  0  0  0  0
  6  8  1  0  0  0  0
  7  8  2  0  0  0  0
  8 17  1  0  0  0  0
  9  3  1  0  0  0  0
 22  9  1  0  0  0  0
  9 18  1  1  0  0  0
  9 10  1  0  0  0  0
 10  2  1  0  0  0  0
 10 15  1  0  0  0  0
 10 19  1  6  0  0  0
 22 11  1  0  0  0  0
 14 11  1  0  0  0  0
 20 12  1  0  0  0  0
 12 16  1  1  0  0  0
 12 14  1  0  0  0  0
 20 13  1  0  0  0  0
 13 15  1  0  0  0  0
 22 20  1  0  0  0  0
 20 21  1  1  0  0  0
 22 23  1  6  0  0  0
M  END
> <ID>
CHEBI:16469

> <NAME>
17beta-estradiol

> <DEFINITION>
The 17β-isomer of estradiol.

> <STAR>
3

> <SECONDARY_ID>
CHEBI:23963; CHEBI:42475; CHEBI:4864; CHEBI:14219

> <SYNONYM>
Estradiol-17beta; Estradiol-17beta; ESTRADIOL; Estradiol; cis-estradiol; beta-Estradiol; 17beta-oestradiol; 17beta-estradiol; 17-beta-estradiol; 17beta-estra-1,3,5(10)-triene-3,17-diol; 17beta oestradiol; (17beta)-estra-1,3,5(10)-triene-3,17-diol

> <IUPAC_NAME>
estra-1,3,5(10)-triene-3,17beta-diol

> <FORMULA>
C18H24O2

> <MASS>
272.38200

> <MONOISOTOPIC_MASS>
272.17763

> <CHARGE>
0

> <SMILES>
[H][C@]12CC[C@]3(C)[C@@H](O)CC[C@@]3([H])[C@]1([H])CCc1cc(O)ccc21

> <INCHI>
InChI=1S/C18H24O2/c1-18-9-8-14-13-5-3-12(19)10-11(13)2-4-15(14)16(18)6-7-17(18)20/h3,5,10,14-17,19-20H,2,4,6-9H2,1H3/t14-,15-,16+,17+,18+/m1/s1

> <INCHIKEY>
VOXZDWNPVJITMN-ZBRFXRBCSA-N

> <BEILSTEIN_REGISTRY_NUMBER>
1914275

> <CAS_REGISTRY_NUMBER>
50-28-2

> <GMELIN_REGISTRY_NUMBER>
290805

> <REAXYS_REGISTRY_NUMBER>
1914275

> <CHEMIDPLUS>
50-28-2

> <DRUGBANK_ACCESSION>
DB00783

> <HMDB_ACCESSION>
HMDB0000151

> <KEGG_COMPOUND_ACCESSION>
C00951

> <KEGG_DRUG_ACCESSION>
D00105

> <LINCS_ACCESSION>
LSM-2421

> <LIPID_MAPS_INSTANCE_ACCESSION>
LMST02010001

> <NIST_CHEMISTRY_WEBBOOK>
50-28-2

> <PDBECHEM_ACCESSION>
EST

> <WIKIPEDIA_ACCESSION>
Estradiol

> <PUBMED_CITATION>
10438974; 14681337; 23901460; 24449492; 3621671

$$$$

Marvin  05060917042D          

  8  8  0  0  0  0            999 V2000
    0.7145   -0.4125    0.0000 C   0  0  0  0  0  0  0  0  0  0  0  0
   -0.7145    0.4125    0.0000 C   0  0  0  0  0  0  0  0  0  0  0  0
    0.0000    0.8250    0.0000 C   0  0  0  0  0  0  0  0  0  0  0  0
    0.0000    1.6500    0.0000 O   0  0  0  0  0  0  0  0  0  0  0  0
    0.0000   -0.8250    0.0000 C   0  0  0  0  0  0  0  0  0  0  0  0
    0.0000   -1.6500    0.0000 O   0  0  0  0  0  0  0  0  0  0  0  0
   -0.7145   -0.4125    0.0000 C   0  0  0  0  0  0  0  0  0  0  0  0
    0.7145    0.4125    0.0000 C   0  0  0  0  0  0  0  0  0  0  0  0
  5  1  1  0  0  0  0
  8  1  2  0  0  0  0
  7  5  1  0  0  0  0
  2  7  2  0  0  0  0
  3  2  1  0  0  0  0
  8  3  1  0  0  0  0
  3  4  2  0  0  0  0
  5  6  2  0  0  0  0
M  END
> <ID>
CHEBI:16509

> <NAME>
1,4-benzoquinone

> <DEFINITION>
The simplest member of the class of 1,4-benzoquinones, obtained by the formal oxidation of hydroquinone to the corresponding diketone. It is a metabolite of benzene.

> <STAR>
3

> <SECONDARY_ID>
CHEBI:49820; CHEBI:8730; CHEBI:12837; CHEBI:15009; CHEBI:18927

> <SYNONYM>
Quinone; Quinone; para-benzoquinone; p-quinone; p-Chinon; p-Benzoquinone; benzoquinone; benzo-1,4-quinone; 2,5-Cyclohexadiene-1,4-dione; 1,4-Benzoquinone; 1,4-benzoquinone; 1,4-benzoquinone; 1,4-Benzochinon

> <IUPAC_NAME>
cyclohexa-2,5-diene-1,4-dione

> <FORMULA>
C6H4O2

> <MASS>
108.09480

> <MONOISOTOPIC_MASS>
108.02113

> <CHARGE>
0

> <SMILES>
O=C1C=CC(=O)C=C1

> <INCHI>
InChI=1S/C6H4O2/c7-5-1-2-6(8)4-3-5/h1-4H

> <INCHIKEY>
AZQWKYJCGOJGHM-UHFFFAOYSA-N

> <BEILSTEIN_REGISTRY_NUMBER>
773967

> <CAS_REGISTRY_NUMBER>
106-51-4

> <GMELIN_REGISTRY_NUMBER>
2741

> <REAXYS_REGISTRY_NUMBER>
773967

> <CHEMIDPLUS>
106-51-4

> <HMDB_ACCESSION>
HMDB0003364

> <KEGG_COMPOUND_ACCESSION>
C00472

> <METACYC_ACCESSION>
P-BENZOQUINONE

> <NIST_CHEMISTRY_WEBBOOK>
106-51-4

> <PDBECHEM_ACCESSION>
PLQ

> <WIKIPEDIA_ACCESSION>
1,4-Benzoquinone

> <PUBMED_CITATION>
10462055; 11304127; 1395635; 15182198; 15618234; 15920754; 16484134; 24023812; 25057895; 9118901

$$$$

Marvin  07060614232D          

 23 24  0  0  1  0            999 V2000
    0.7145    0.5560    0.0000 C   0  0  2  0  0  0  0  0  0  0  0  0
    0.0000    0.9685    0.0000 O   0  0  0  0  0  0  0  0  0  0  0  0
    1.4289    0.9685    0.0000 C   0  0  2  0  0  0  0  0  0  0  0  0
    1.4289    1.7935    0.0000 O   0  0  0  0  0  0  0  0  0  0  0  0
    2.1434    0.5560    0.0000 C   0  0  1  0  0  0  0  0  0  0  0  0
    2.8579    0.9685    0.0000 O   0  0  0  0  0  0  0  0  0  0  0  0
    2.1434   -0.2690    0.0000 C   0  0  2  0  0  0  0  0  0  0  0  0
    2.8579   -0.6815    0.0000 O   0  0  0  0  0  0  0  0  0  0  0  0
    1.4289   -0.6815    0.0000 C   0  0  2  0  0  0  0  0  0  0  0  0
    0.7145   -0.2690    0.0000 O   0  0  0  0  0  0  0  0  0  0  0  0
    1.4289   -1.5065    0.0000 C   0  0  0  0  0  0  0  0  0  0  0  0
    2.1434   -1.9190    0.0000 O   0  0  0  0  0  0  0  0  0  0  0  0
   -0.7145    0.5560    0.0000 C   0  0  2  0  0  0  0  0  0  0  0  0
   -0.7145   -0.2690    0.0000 C   0  0  2  0  0  0  0  0  0  0  0  0
    0.0000   -0.6815    0.0000 O   0  0  0  0  0  0  0  0  0  0  0  0
   -1.4289   -0.6815    0.0000 C   0  0  1  0  0  0  0  0  0  0  0  0
   -1.4289   -1.5065    0.0000 O   0  0  0  0  0  0  0  0  0  0  0  0
   -2.1434   -0.2690    0.0000 C   0  0  2  0  0  0  0  0  0  0  0  0
   -2.8579   -0.6815    0.0000 O   0  0  0  0  0  0  0  0  0  0  0  0
   -2.1434    0.5560    0.0000 C   0  0  2  0  0  0  0  0  0  0  0  0
   -1.4289    0.9685    0.0000 O   0  0  0  0  0  0  0  0  0  0  0  0
   -2.8579    0.9685    0.0000 C   0  0  0  0  0  0  0  0  0  0  0  0
   -3.5724    0.5560    0.0000 O   0  0  0  0  0  0  0  0  0  0  0  0
  1  2  1  6  0  0  0
  3  1  1  0  0  0  0
 10  1  1  0  0  0  0
 13  2  1  6  0  0  0
  3  4  1  6  0  0  0
  5  3  1  0  0  0  0
  5  6  1  1  0  0  0
  7  5  1  0  0  0  0
  7  8  1  6  0  0  0
  9  7  1  0  0  0  0
 10  9  1  0  0  0  0
  9 11  1  1  0  0  0
 12 11  1  0  0  0  0
 14 13  1  0  0  0  0
 21 13  1  0  0  0  0
 14 15  1  6  0  0  0
 16 14  1  0  0  0  0
 16 17  1  1  0  0  0
 18 16  1  0  0  0  0
 18 19  1  6  0  0  0
 20 18  1  0  0  0  0
 21 20  1  0  0  0  0
 20 22  1  1  0  0  0
 23 22  1  0  0  0  0
M  END
> <ID>
CHEBI:16551

> <NAME>
alpha,alpha-trehalose

> <DEFINITION>
A trehalose in which both glucose residues have α-configuration at the anomeric carbon.

> <STAR>
3

> <SECONDARY_ID>
CHEBI:15251; CHEBI:46211; CHEBI:10202; CHEBI:12281; CHEBI:12284; CHEBI:12287; CHEBI:22365

> <SYNONYM>
TREHALOSE; Trehalose; mycose; ergot sugar; D-(+)-trehalose; alpha-trehalose; alpha-D-Trehalose; alpha-D-glucopyranosyl-alpha-D-glucopyranoside; alpha-D-Glcp-(1<->1)-alpha-D-Glcp; alpha,alpha-trehalose; alpha,alpha-Trehalose; alpha,alpha'-Trehalose; (Glc)2

> <IUPAC_NAME>
alpha-D-glucopyranosyl alpha-D-glucopyranoside

> <FORMULA>
C12H22O11

> <MASS>
342.29648

> <MONOISOTOPIC_MASS>
342.11621

> <CHARGE>
0

> <SMILES>
OC[C@H]1O[C@H](O[C@H]2O[C@H](CO)[C@@H](O)[C@H](O)[C@H]2O)[C@H](O)[C@@H](O)[C@@H]1O

> <INCHI>
InChI=1S/C12H22O11/c13-1-3-5(15)7(17)9(19)11(21-3)23-12-10(20)8(18)6(16)4(2-14)22-12/h3-20H,1-2H2/t3-,4-,5-,6-,7+,8+,9-,10-,11-,12-/m1/s1

> <INCHIKEY>
HDTRYLNUVZCQOY-LIZSDCNHSA-N

> <BEILSTEIN_REGISTRY_NUMBER>
1292766

> <CAS_REGISTRY_NUMBER>
99-20-7

> <GMELIN_REGISTRY_NUMBER>
2145829

> <REAXYS_REGISTRY_NUMBER>
1292766

> <CHEMIDPLUS>
99-20-7

> <HMDB_ACCESSION>
HMDB0000975

> <KEGG_COMPOUND_ACCESSION>
C01083

> <KEGG_GLYCAN_ACCESSION>
G00293

> <KNAPSACK_ACCESSION>
C00001152

> <LINCS_ACCESSION>
LSM-37121

> <METACYC_ACCESSION>
TREHALOSE

> <NIST_CHEMISTRY_WEBBOOK>
99-20-7

> <PDBECHEM_ACCESSION>
TRE

> <WIKIPEDIA_ACCESSION>
Trehalose

> <PUBMED_CITATION>
17439666

$$$$

Marvin  10060723122D          

 11 10  0  0  1  0            999 V2000
    1.4289    1.0500    0.0000 O   0  0  0  0  0  0  0  0  0  0  0  0
    1.4289    0.2250    0.0000 C   0  0  0  0  0  0  0  0  0  0  0  0
    2.1434   -0.1875    0.0000 O   0  0  0  0  0  0  0  0  0  0  0  0
    0.7145   -0.1875    0.0000 C   0  0  2  0  0  0  0  0  0  0  0  0
    0.0000    0.2250    0.0000 N   0  0  0  0  0  0  0  0  0  0  0  0
    0.7145   -1.0125    0.0000 C   0  0  0  0  0  0  0  0  0  0  0  0
   -0.7145   -0.1875    0.0000 C   0  0  0  0  0  0  0  0  0  0  0  0
   -0.7145   -1.0125    0.0000 O   0  0  0  0  0  0  0  0  0  0  0  0
   -1.4289    0.2250    0.0000 C   0  0  2  0  0  0  0  0  0  0  0  0
   -1.4289    1.0500    0.0000 N   0  0  0  0  0  0  0  0  0  0  0  0
   -2.1434   -0.1875    0.0000 C   0  0  0  0  0  0  0  0  0  0  0  0
  2  1  2  0  0  0  0
  3  2  1  0  0  0  0
  4  2  1  0  0  0  0
  4  5  1  0  0  0  0
  4  6  1  1  0  0  0
  8  7  2  0  0  0  0
  9  7  1  0  0  0  0
  9 10  1  1  0  0  0
 11  9  1  0  0  0  0
  5  7  1  0  0  0  0
M  END
> <ID>
CHEBI:16576

> <NAME>
D-alanyl-D-alanine

> <DEFINITION>
A dipeptide comprising D-alanine with a D-alanyl residue attached to the α-nitrogen. It is a component of bacterial peptidoglycan and forms an important target for development of antibacterial drugs .

> <STAR>
3

> <SECONDARY_ID>
CHEBI:4088; CHEBI:13749; CHEBI:20894; CHEBI:12900

> <SYNONYM>
H-D-Ala-D-Ala-OH; D-Alanyl-D-alanine; D-Ala-D-Ala; D-Ala-D-Ala; (D-Ala)2

> <FORMULA>
C6H12N2O3

> <MASS>
160.17116

> <MONOISOTOPIC_MASS>
160.08479

> <CHARGE>
0

> <SMILES>
C[C@@H](N)C(=O)N[C@H](C)C(O)=O

> <INCHI>
InChI=1S/C6H12N2O3/c1-3(7)5(9)8-4(2)6(10)11/h3-4H,7H2,1-2H3,(H,8,9)(H,10,11)/t3-,4-/m1/s1

> <INCHIKEY>
DEFJQIDDEAULHB-QWWZWVQMSA-N

> <BEILSTEIN_REGISTRY_NUMBER>
1724814

> <CAS_REGISTRY_NUMBER>
923-16-0

> <REAXYS_REGISTRY_NUMBER>
1724814

> <HMDB_ACCESSION>
HMDB0003459

> <KEGG_COMPOUND_ACCESSION>
C00993

> <KNAPSACK_ACCESSION>
C00019576

> <PUBMED_CITATION>
16030213; 19053785; 24440607; 61706

$$$$

Marvin  09040815322D          

 26 28  0  0  0  0            999 V2000
    0.5678   -0.4125    0.0000 C   0  0  1  0  0  0  0  0  0  0  0  0
    0.5678    0.4125    0.0000 C   0  0  2  0  0  0  0  0  0  0  0  0
   -0.2169    0.6674    0.0000 C   0  0  1  0  0  0  0  0  0  0  0  0
   -0.7018    0.0000    0.0000 O   0  0  0  0  0  0  0  0  0  0  0  0
   -0.2169   -0.6674    0.0000 C   0  0  2  0  0  0  0  0  0  0  0  0
    1.2352    0.8974    0.0000 O   0  0  0  0  0  0  0  0  0  0  0  0
    1.2352   -0.8974    0.0000 O   0  0  0  0  0  0  0  0  0  0  0  0
   -0.4718    1.4521    0.0000 N   0  0  0  0  0  0  0  0  0  0  0  0
   -1.2564    1.7070    0.0000 C   0  0  0  0  0  0  0  0  0  0  0  0
    0.0131    2.1195    0.0000 C   0  0  0  0  0  0  0  0  0  0  0  0
   -1.2564    2.5320    0.0000 C   0  0  0  0  0  0  0  0  0  0  0  0
   -1.9709    1.2945    0.0000 N   0  0  0  0  0  0  0  0  0  0  0  0
   -0.4718    2.7869    0.0000 N   0  0  0  0  0  0  0  0  0  0  0  0
   -1.9709    2.9445    0.0000 C   0  0  0  0  0  0  0  0  0  0  0  0
   -2.6854    1.7070    0.0000 C   0  0  0  0  0  0  0  0  0  0  0  0
   -2.6854    2.5320    0.0000 N   0  0  0  0  0  0  0  0  0  0  0  0
   -1.9709    3.7695    0.0000 N   0  0  0  0  0  0  0  0  0  0  0  0
   -0.4718   -1.4521    0.0000 C   0  0  0  0  0  0  0  0  0  0  0  0
   -1.2788   -1.6236    0.0000 S   0  0  0  0  0  0  0  0  0  0  0  0
   -1.5337   -2.4082    0.0000 C   0  0  0  0  0  0  0  0  0  0  0  0
   -2.3306   -2.6217    0.0000 C   0  0  0  0  0  0  0  0  0  0  0  0
   -2.5855   -3.4064    0.0000 C   0  0  1  0  0  0  0  0  0  0  0  0
   -1.2366   -3.8059    0.0000 O   0  0  0  0  0  0  0  0  0  0  0  0
   -2.2985   -4.7621    0.0000 O   0  0  0  0  0  0  0  0  0  0  0  0
   -2.0436   -3.9775    0.0000 C   0  0  0  0  0  0  0  0  0  0  0  0
   -3.3925   -3.5779    0.0000 N   0  0  0  0  0  0  0  0  0  0  0  0
  1  7  1  6  0  0  0
  2  1  1  0  0  0  0
  2  6  1  6  0  0  0
  3  2  1  0  0  0  0
  3  8  1  1  0  0  0
  3  4  1  0  0  0  0
  4  5  1  0  0  0  0
  5  1  1  0  0  0  0
  5 18  1  1  0  0  0
  8  9  1  0  0  0  0
  8 10  1  0  0  0  0
  9 11  2  0  0  0  0
  9 12  1  0  0  0  0
 10 13  2  0  0  0  0
 11 14  1  0  0  0  0
 11 13  1  0  0  0  0
 12 15  2  0  0  0  0
 14 16  2  0  0  0  0
 14 17  1  0  0  0  0
 15 16  1  0  0  0  0
 18 19  1  0  0  0  0
 20 19  1  0  0  0  0
 20 21  1  0  0  0  0
 22 21  1  0  0  0  0
 22 26  1  1  0  0  0
 22 25  1  0  0  0  0
 23 25  1  0  0  0  0
 25 24  2  0  0  0  0
M  END
> <ID>
CHEBI:16680

> <NAME>
S-adenosyl-L-homocysteine

> <DEFINITION>
An organic sulfide that is the S-adenosyl derivative of L-homocysteine.

> <STAR>
3

> <SECONDARY_ID>
CHEBI:45495; CHEBI:8945; CHEBI:12741; CHEBI:12759; CHEBI:12761; CHEBI:22034

> <SYNONYM>
SAH; S-Adenosylhomocysteine; S-ADENOSYL-L-HOMOCYSTEINE; S-Adenosyl-L-homocysteine; S-[1-(adenin-9-yl)-1,5-dideoxy-beta-D-ribofuranos-5-yl]-L-homocysteine; S-(5'-adenosyl)-L-homocysteine; S-(5'-adenosyl)-L-homocysteine; AdoHcy; adenosylhomocysteine; Adenosyl-L-homocysteine; 2-S-adenosyl-L-homocysteine; (2S)-2-amino-4-({[(2S,3S,4R,5R)-5-(6-amino-9H-purin-9-yl)-3,4-dihydroxytetrahydrofuran-2-yl]methyl}sulfanyl)butanoic acid

> <IUPAC_NAME>
S-(5'-deoxyadenosin-5'-yl)-L-homocysteine

> <FORMULA>
C14H20N6O5S

> <MASS>
384.41204

> <MONOISOTOPIC_MASS>
384.12159

> <CHARGE>
0

> <SMILES>
N[C@@H](CCSC[C@H]1O[C@H]([C@H](O)[C@@H]1O)n1cnc2c(N)ncnc12)C(O)=O

> <INCHI>
InChI=1S/C14H20N6O5S/c15-6(14(23)24)1-2-26-3-7-9(21)10(22)13(25-7)20-5-19-8-11(16)17-4-18-12(8)20/h4-7,9-10,13,21-22H,1-3,15H2,(H,23,24)(H2,16,17,18)/t6-,7+,9+,10+,13+/m0/s1

> <INCHIKEY>
ZJUKTBDSGOFHSH-WFMPWKQPSA-N

> <BEILSTEIN_REGISTRY_NUMBER>
99188

> <CAS_REGISTRY_NUMBER>
979-92-0

> <GMELIN_REGISTRY_NUMBER>
692100

> <REAXYS_REGISTRY_NUMBER>
99188

> <CHEMIDPLUS>
979-92-0

> <DRUGBANK_ACCESSION>
DB01752

> <HMDB_ACCESSION>
HMDB0000939

> <KEGG_COMPOUND_ACCESSION>
C00021

> <KNAPSACK_ACCESSION>
C00007230

> <METACYC_ACCESSION>
ADENOSYL-HOMO-CYS

> <PDBECHEM_ACCESSION>
SAH

> <WIKIPEDIA_ACCESSION>
S-Adenosyl-L-homocysteine

> <PUBMED_CITATION>
11700066; 11746687; 11961214; 11997462; 12767735; 15026045; 15057524; 15542683; 15645450; 16109423; 16197293; 16197315; 16253211; 16423634; 16519522; 17044778; 17172447; 17300772; 17439666; 17726531; 18976670; 19249293; 19357721; 21837278; 22225784; 22455498; 24145794

$$$$

Mrv0541 03311411112D          

 34 36  0  0  1  0            999 V2000
   13.0490   -5.3110    0.0000 C   0  0  2  0  0  0  0  0  0  0  0  0
   12.3781   -4.8265    0.0000 O   0  0  0  0  0  0  0  0  0  0  0  0
   12.7906   -6.0968    0.0000 C   0  0  2  0  0  0  0  0  0  0  0  0
   13.8708   -5.3073    0.0000 O   0  0  0  0  0  0  0  0  0  0  0  0
   13.6230   -4.7297    0.0000 C   0  0  0  0  0  0  0  0  0  0  0  0
   11.7106   -5.3110    0.0000 C   0  0  1  0  0  0  0  0  0  0  0  0
   11.9690   -6.0968    0.0000 C   0  0  1  0  0  0  0  0  0  0  0  0
   13.2787   -6.7641    0.0000 O   0  0  0  0  0  0  0  0  0  0  0  0
   14.9974   -4.8229    0.0000 C   0  0  0  0  0  0  0  0  0  0  0  0
   13.6626   -3.6854    0.0000 O   0  0  0  0  0  0  0  0  0  0  0  0
   10.8243   -4.8839    0.0000 C   0  0  0  0  0  0  0  0  0  0  0  0
   11.4845   -6.7641    0.0000 O   0  0  0  0  0  0  0  0  0  0  0  0
   15.9626   -5.4508    0.0000 C   0  0  1  0  0  0  0  0  0  0  0  0
    9.6903   -5.4221    0.0000 O   0  0  0  0  0  0  0  0  0  0  0  0
   16.6336   -4.9664    0.0000 O   0  0  0  0  0  0  0  0  0  0  0  0
   16.2174   -6.2367    0.0000 C   0  0  2  0  0  0  0  0  0  0  0  0
    8.8686   -5.4257    0.0000 C   0  0  2  0  0  0  0  0  0  0  0  0
   17.2975   -5.4508    0.0000 C   0  0  1  0  0  0  0  0  0  0  0  0
   17.0464   -6.2367    0.0000 C   0  0  1  0  0  0  0  0  0  0  0  0
   15.7331   -6.9041    0.0000 O   0  0  0  0  0  0  0  0  0  0  0  0
    8.2012   -4.9378    0.0000 O   0  0  0  0  0  0  0  0  0  0  0  0
    8.6103   -6.2081    0.0000 C   0  0  2  0  0  0  0  0  0  0  0  0
    9.4428   -4.8445    0.0000 C   0  0  0  0  0  0  0  0  0  0  0  0
   17.8717   -4.8695    0.0000 C   0  0  0  0  0  0  0  0  0  0  0  0
   18.1229   -5.4472    0.0000 O   0  0  0  0  0  0  0  0  0  0  0  0
   17.5272   -6.9041    0.0000 O   0  0  0  0  0  0  0  0  0  0  0  0
    7.5303   -5.4257    0.0000 C   0  0  1  0  0  0  0  0  0  0  0  0
    7.7885   -6.2081    0.0000 C   0  0  1  0  0  0  0  0  0  0  0  0
    9.1952   -6.8825    0.0000 O   0  0  0  0  0  0  0  0  0  0  0  0
    9.4822   -3.8003    0.0000 O   0  0  0  0  0  0  0  0  0  0  0  0
   17.9148   -3.8217    0.0000 O   0  0  0  0  0  0  0  0  0  0  0  0
    6.7479   -5.1710    0.0000 C   0  0  0  0  0  0  0  0  0  0  0  0
    7.3006   -6.8790    0.0000 O   0  0  0  0  0  0  0  0  0  0  0  0
    6.0231   -5.5765    0.0000 O   0  0  0  0  0  0  0  0  0  0  0  0
  1  2  1  0  0  0  0
  1  3  1  0  0  0  0
  1  4  1  1  0  0  0
  1  5  1  6  0  0  0
  2  6  1  0  0  0  0
  3  7  1  0  0  0  0
  3  8  1  1  0  0  0
  4  9  1  0  0  0  0
  5 10  1  0  0  0  0
  6 11  1  1  0  0  0
  7 12  1  6  0  0  0
 13  9  1  1  0  0  0
 11 14  1  0  0  0  0
 13 15  1  0  0  0  0
 13 16  1  0  0  0  0
 17 14  1  1  0  0  0
 15 18  1  0  0  0  0
 16 19  1  0  0  0  0
 16 20  1  6  0  0  0
 17 21  1  0  0  0  0
 17 22  1  0  0  0  0
 17 23  1  6  0  0  0
 18 24  1  6  0  0  0
 18 25  1  1  0  0  0
 19 26  1  1  0  0  0
 21 27  1  0  0  0  0
 22 28  1  0  0  0  0
 22 29  1  1  0  0  0
 23 30  1  0  0  0  0
 24 31  1  0  0  0  0
 27 32  1  1  0  0  0
 28 33  1  6  0  0  0
 32 34  1  0  0  0  0
  6  7  1  0  0  0  0
 18 19  1  0  0  0  0
 27 28  1  0  0  0  0
M  STY  1   1 SRU
M  SCN  1   1 HT 
M  SAL   1 11   1   2   3   4   5   6   7   8  10  11  12
M  SDI   1  4   10.5342   -5.4781   10.1804   -4.7329
M  SDI   1  4   14.1718   -4.7289   14.4976   -5.4867
M  SBL   1  2   8  13
M  SMT   1 n
M  END
> <ID>
CHEBI:16703

> <NAME>
(2->6)-beta-D-fructan

> <DEFINITION>
A fructan compound consisting of repeating (2→6)-β-linked fructofuranose units.

> <STAR>
3

> <SECONDARY_ID>
CHEBI:171; CHEBI:10369; CHEBI:10847; CHEBI:35466; CHEBI:18522; CHEBI:18526; CHEBI:10848; CHEBI:18523; CHEBI:18524; CHEBI:18525; CHEBI:18527; CHEBI:22762; CHEBI:19387; CHEBI:27892; CHEBI:29093

> <SYNONYM>
Polyfructose; Levan n; Levan; beta-D-Levan; beta-D-Fructan; 2,6-beta-D-Fructan; (2,6-beta-D-Fructosyl)n+1; (2,6-beta-D-Fructosyl)n; (2,6-beta-D-fructosyl)n

> <IUPAC_NAME>
(2->6)-beta-D-fructofuranan

> <FORMULA>
(C6H10O5)nC12H22O11

> <CHARGE>
0

> <BEILSTEIN_REGISTRY_NUMBER>
8194713

> <CAS_REGISTRY_NUMBER>
9013-95-0

> <REAXYS_REGISTRY_NUMBER>
8194713

> <CHEMIDPLUS>
9013-95-0

> <KEGG_COMPOUND_ACCESSION>
C06215

> <WIKIPEDIA_ACCESSION>
Levan_polysaccharide

> <PUBMED_CITATION>
24274530; 24299864

$$$$

Marvin  09270614422D          

 10 11  0  0  0  0            999 V2000
    0.1021    0.3945    0.0000 C   0  0  0  0  0  0  0  0  0  0  0  0
    0.1021   -0.4305    0.0000 C   0  0  0  0  0  0  0  0  0  0  0  0
   -0.6124    0.8070    0.0000 C   0  0  0  0  0  0  0  0  0  0  0  0
    0.8867    0.6494    0.0000 N   0  0  0  0  0  0  0  0  0  0  0  0
   -0.6124   -0.8430    0.0000 N   0  0  0  0  0  0  0  0  0  0  0  0
   -1.3269    0.3945    0.0000 N   0  0  0  0  0  0  0  0  0  0  0  0
   -0.6124    1.6320    0.0000 N   0  0  0  0  0  0  0  0  0  0  0  0
    1.3716   -0.0180    0.0000 C   0  0  0  0  0  0  0  0  0  0  0  0
   -1.3269   -0.4305    0.0000 C   0  0  0  0  0  0  0  0  0  0  0  0
    0.8867   -0.6854    0.0000 N   0  0  0  0  0  0  0  0  0  0  0  0
  1  2  1  0  0  0  0
  1  3  2  0  0  0  0
  1  4  1  0  0  0  0
  2  5  2  0  0  0  0
  2 10  1  0  0  0  0
  3  6  1  0  0  0  0
  3  7  1  0  0  0  0
  4  8  2  0  0  0  0
  5  9  1  0  0  0  0
 10  8  1  0  0  0  0
  6  9  2  0  0  0  0
M  END
> <ID>
CHEBI:16708

> <NAME>
adenine

> <DEFINITION>
The parent compound of the 6-aminopurines, composed of a purine having an amino group at C-6.

> <STAR>
3

> <SECONDARY_ID>
CHEBI:40579; CHEBI:2470; CHEBI:13733; CHEBI:22236

> <SYNONYM>
adenine; ADENINE; Adenine; Adenin; Ade; A; 6-Aminopurine

> <IUPAC_NAME>
9H-purin-6-amine

> <FORMULA>
C5H5N5

> <MASS>
135.12690

> <MONOISOTOPIC_MASS>
135.05450

> <CHARGE>
0

> <SMILES>
Nc1ncnc2[nH]cnc12

> <INCHI>
InChI=1S/C5H5N5/c6-4-3-5(9-1-7-3)10-2-8-4/h1-2H,(H3,6,7,8,9,10)

> <INCHIKEY>
GFFGJBXGBJISGV-UHFFFAOYSA-N

> <BEILSTEIN_REGISTRY_NUMBER>
608603

> <CAS_REGISTRY_NUMBER>
73-24-5

> <GMELIN_REGISTRY_NUMBER>
3903

> <REAXYS_REGISTRY_NUMBER>
608603

> <CHEMIDPLUS>
73-24-5

> <DRUGBANK_ACCESSION>
DB00173

> <HMDB_ACCESSION>
HMDB0000034

> <KEGG_COMPOUND_ACCESSION>
C00147

> <KEGG_DRUG_ACCESSION>
D00034

> <KNAPSACK_ACCESSION>
C00001490

> <METACYC_ACCESSION>
ADENINE

> <NIST_CHEMISTRY_WEBBOOK>
73-24-5

> <PDBECHEM_ACCESSION>
ADE

> <WIKIPEDIA_ACCESSION>
Adenine

> <PUBMED_CITATION>
11985597; 12829005; 12951489; 15063338; 15715490; 17439666; 8070089

$$$$

Marvin  03220818382D          

 12 12  0  0  0  0            999 V2000
    0.7145   -0.4125    0.0000 C   0  0  0  0  0  0  0  0  0  0  0  0
    0.7145    0.4125    0.0000 C   0  0  0  0  0  0  0  0  0  0  0  0
    0.0000   -0.8250    0.0000 N   0  0  0  0  0  0  0  0  0  0  0  0
    0.0000    0.8250    0.0000 C   0  0  0  0  0  0  0  0  0  0  0  0
   -0.7145    0.4125    0.0000 C   0  0  0  0  0  0  0  0  0  0  0  0
   -0.7145   -0.4125    0.0000 C   0  0  0  0  0  0  0  0  0  0  0  0
    1.4289    0.8250    0.0000 C   0  0  0  0  0  0  0  0  0  0  0  0
    2.1434    0.4125    0.0000 O   0  0  0  0  0  0  0  0  0  0  0  0
   -1.4289   -0.8250    0.0000 C   0  0  0  0  0  0  0  0  0  0  0  0
   -1.4289    0.8250    0.0000 O   0  0  0  0  0  0  0  0  0  0  0  0
    0.0000    1.6500    0.0000 C   0  0  0  0  0  0  0  0  0  0  0  0
   -0.7145    2.0625    0.0000 O   0  0  0  0  0  0  0  0  0  0  0  0
  2  1  1  0  0  0  0
  7  2  1  0  0  0  0
  1  3  2  0  0  0  0
  4  2  2  0  0  0  0
 11  4  1  0  0  0  0
  5  4  1  0  0  0  0
 10  5  1  0  0  0  0
  6  3  1  0  0  0  0
  6  5  2  0  0  0  0
  9  6  1  0  0  0  0
  8  7  1  0  0  0  0
 11 12  1  0  0  0  0
M  END
> <ID>
CHEBI:16709

> <NAME>
pyridoxine

> <DEFINITION>
A hydroxymethylpyridine with hydroxymethyl groups at positions 4 and 5, a hydroxy group at position 3 and a methyl group at position 2. The 4-methanol form of vitamin B6, it is converted intoto pyridoxal phosphate which is a coenzyme for synthesis of amino acids, neurotransmitters, sphingolipids and aminolevulinic acid.

> <STAR>
3

> <SECONDARY_ID>
CHEBI:8671; CHEBI:14981; CHEBI:26429

> <SYNONYM>
vitamin B6; Pyridoxol; pyridoxine; Pyridoxine; 5-hydroxy-6-methyl-3,4-pyridinedimethanol; 3-hydroxy-4,5-dimethylol-alpha-picoline; 3-hydroxy-4,5-bis(hydroxymethyl)-2-methylpyridine; 2-methyl-3-hydroxy-4,5-dihydroxymethylpyridine

> <IUPAC_NAME>
4,5-bis(hydroxymethyl)-2-methylpyridin-3-ol

> <FORMULA>
C8H11NO3

> <MASS>
169.17788

> <MONOISOTOPIC_MASS>
169.07389

> <CHARGE>
0

> <SMILES>
Cc1ncc(CO)c(CO)c1O

> <INCHI>
InChI=1S/C8H11NO3/c1-5-8(12)7(4-11)6(3-10)2-9-5/h2,10-12H,3-4H2,1H3

> <INCHIKEY>
LXNHXLLTXMVWPM-UHFFFAOYSA-N

> <BEILSTEIN_REGISTRY_NUMBER>
139854

> <CAS_REGISTRY_NUMBER>
65-23-6

> <GMELIN_REGISTRY_NUMBER>
563676

> <REAXYS_REGISTRY_NUMBER>
139854

> <CHEMIDPLUS>
65-23-6

> <DRUGBANK_ACCESSION>
DB00165

> <HMDB_ACCESSION>
HMDB0000239

> <KEGG_COMPOUND_ACCESSION>
C00314

> <KEGG_DRUG_ACCESSION>
D08454

> <KNAPSACK_ACCESSION>
C00001551

> <LINCS_ACCESSION>
LSM-5324

> <NIST_CHEMISTRY_WEBBOOK>
65-23-6

> <WIKIPEDIA_ACCESSION>
Pyridoxine

> <PUBMED_CITATION>
24035968; 2580028

$$$$

Marvin  10310613082D          

  6  6  0  0  0  0            999 V2000
    0.7145   -0.4125    0.0000 C   0  0  0  0  0  0  0  0  0  0  0  0
    0.0000   -0.8250    0.0000 C   0  0  0  0  0  0  0  0  0  0  0  0
    0.7145    0.4125    0.0000 C   0  0  0  0  0  0  0  0  0  0  0  0
    0.0000    0.8250    0.0000 C   0  0  0  0  0  0  0  0  0  0  0  0
   -0.7145   -0.4125    0.0000 C   0  0  0  0  0  0  0  0  0  0  0  0
   -0.7145    0.4125    0.0000 C   0  0  0  0  0  0  0  0  0  0  0  0
  2  1  2  0  0  0  0
  3  1  1  0  0  0  0
  4  3  2  0  0  0  0
  5  2  1  0  0  0  0
  6  4  1  0  0  0  0
  5  6  2  0  0  0  0
M  END
> <ID>
CHEBI:16716

> <NAME>
benzene

> <DEFINITION>
A six-carbon aromatic annulene in which each carbon atom donates one of its two 2p electrons into a delocalised π system. A toxic, flammable liquid byproduct of coal distillation, it is used as an industrial solvent. Benzene is a carcinogen that also damages bone marrow and the central nervous system.

> <STAR>
3

> <SECONDARY_ID>
CHEBI:41187; CHEBI:3025; CHEBI:13876; CHEBI:22703

> <SYNONYM>
Pyrobenzole; Pyrobenzol; phenyl hydride; Phene; Mineral naphtha; cyclohexatriene; Coal naphtha; Bicarburet of hydrogen; benzole; Benzol; Benzine; benzene; benzene; BENZENE; Benzene; Benzen; [6]annulene

> <IUPAC_NAME>
benzene

> <FORMULA>
C6H6

> <MASS>
78.11184

> <MONOISOTOPIC_MASS>
78.04695

> <CHARGE>
0

> <SMILES>
c1ccccc1

> <INCHI>
InChI=1S/C6H6/c1-2-4-6-5-3-1/h1-6H

> <INCHIKEY>
UHOVQNZJYSORNB-UHFFFAOYSA-N

> <BEILSTEIN_REGISTRY_NUMBER>
969212

> <CAS_REGISTRY_NUMBER>
71-43-2

> <GMELIN_REGISTRY_NUMBER>
1671

> <REAXYS_REGISTRY_NUMBER>
969212

> <CHEMIDPLUS>
71-43-2

> <HMDB_ACCESSION>
HMDB0001505

> <KEGG_COMPOUND_ACCESSION>
C01407

> <NIST_CHEMISTRY_WEBBOOK>
71-43-2

> <PDBECHEM_ACCESSION>
BNZ

> <WIKIPEDIA_ACCESSION>
Benzene

> <PUBMED_CITATION>
11684179; 11993966; 12857942; 14677922; 15468289; 15935818; 16161967; 17373369; 18072742; 18407866; 18409691; 18836923; 19228219; 21325737; 23088855; 23222815; 23534829; 6353911; 8124204

$$$$

Marvin  01220711512D          

 20 22  0  0  1  0            999 V2000
    0.9372   -1.0517    0.0000 C   0  0  0  0  0  0  0  0  0  0  0  0
    0.2227   -1.4642    0.0000 N   0  0  0  0  0  0  0  0  0  0  0  0
    0.9371   -2.7017    0.0000 N   0  0  0  0  0  0  0  0  0  0  0  0
    1.6516   -2.2892    0.0000 C   0  0  0  0  0  0  0  0  0  0  0  0
    1.6516   -1.4642    0.0000 C   0  0  0  0  0  0  0  0  0  0  0  0
    2.4362   -1.2093    0.0000 N   0  0  0  0  0  0  0  0  0  0  0  0
    2.9212   -1.8768    0.0000 C   0  0  0  0  0  0  0  0  0  0  0  0
    2.4362   -2.5442    0.0000 N   0  0  0  0  0  0  0  0  0  0  0  0
    2.6912   -3.3290    0.0000 C   0  0  2  0  0  0  0  0  0  0  0  0
    2.2062   -3.9963    0.0000 O   0  0  0  0  0  0  0  0  0  0  0  0
    2.6911   -4.6639    0.0000 C   0  0  2  0  0  0  0  0  0  0  0  0
    2.4361   -5.4485    0.0000 C   0  0  0  0  0  0  0  0  0  0  0  0
    2.9882   -6.0616    0.0000 O   0  0  0  0  0  0  0  0  0  0  0  0
    3.4757   -4.4089    0.0000 C   0  0  1  0  0  0  0  0  0  0  0  0
    4.1432   -4.8939    0.0000 O   0  0  0  0  0  0  0  0  0  0  0  0
    3.4758   -3.5839    0.0000 C   0  0  1  0  0  0  0  0  0  0  0  0
    4.1432   -3.0990    0.0000 O   0  0  0  0  0  0  0  0  0  0  0  0
    0.2226   -2.2892    0.0000 C   0  0  0  0  0  0  0  0  0  0  0  0
   -0.4919   -2.7017    0.0000 N   0  0  0  0  0  0  0  0  0  0  0  0
    0.9372   -0.2267    0.0000 O   0  0  0  0  0  0  0  0  0  0  0  0
 20  1  2  0  0  0  0
  1  2  1  0  0  0  0
  1  5  1  0  0  0  0
  2 18  1  0  0  0  0
 18  3  2  0  0  0  0
  3  4  1  0  0  0  0
  4  5  2  0  0  0  0
  4  8  1  0  0  0  0
  5  6  1  0  0  0  0
  6  7  2  0  0  0  0
  7  8  1  0  0  0  0
  9  8  1  1  0  0  0
  9 10  1  0  0  0  0
  9 16  1  0  0  0  0
 10 11  1  0  0  0  0
 11 12  1  1  0  0  0
 11 14  1  0  0  0  0
 12 13  1  0  0  0  0
 14 15  1  6  0  0  0
 14 16  1  0  0  0  0
 16 17  1  6  0  0  0
 18 19  1  0  0  0  0
M  END
> <ID>
CHEBI:16750

> <NAME>
guanosine

> <DEFINITION>
A purine nucleoside in which guanine is attached to ribofuranose via a β-N9-glycosidic bond.

> <STAR>
3

> <SECONDARY_ID>
CHEBI:42840; CHEBI:42847; CHEBI:42853; CHEBI:471737; CHEBI:5564; CHEBI:14375; CHEBI:24444

> <SYNONYM>
Guo; guanosine; Guanosine; Guanosin; Guanine-9-beta-D-ribofuranoside; Guanine riboside; G; 9-beta-D-ribofuranosyl-guanine; 2-amino-9-beta-D-ribofuranosyl-1,9-dihydro-6H-purin-6-one; 2-amino-1,9-dihydro-9-beta-D-ribofuranosyl-6H-purin-6-one; 2(3H)-imino-9-beta-D-ribofuranosyl-9H-purin-6(1H)-one

> <IUPAC_NAME>
guanosine

> <FORMULA>
C10H13N5O5

> <MASS>
283.24092

> <MONOISOTOPIC_MASS>
283.09167

> <CHARGE>
0

> <SMILES>
Nc1nc2n(cnc2c(=O)[nH]1)[C@@H]1O[C@H](CO)[C@@H](O)[C@H]1O

> <INCHI>
InChI=1S/C10H13N5O5/c11-10-13-7-4(8(19)14-10)12-2-15(7)9-6(18)5(17)3(1-16)20-9/h2-3,5-6,9,16-18H,1H2,(H3,11,13,14,19)/t3-,5-,6-,9-/m1/s1

> <INCHIKEY>
NYHBQMYGNKIUIF-UUOKFMHZSA-N

> <BEILSTEIN_REGISTRY_NUMBER>
625911

> <CAS_REGISTRY_NUMBER>
118-00-3

> <GMELIN_REGISTRY_NUMBER>
55323

> <REAXYS_REGISTRY_NUMBER>
625911

> <CHEMIDPLUS>
118-00-3

> <DRUGBANK_ACCESSION>
DB02857

> <ECMDB_ACCESSION>
ECMDB00133

> <HMDB_ACCESSION>
HMDB0000133

> <KEGG_COMPOUND_ACCESSION>
C00387

> <KNAPSACK_ACCESSION>
C00019679

> <METACYC_ACCESSION>
GUANOSINE

> <NIST_CHEMISTRY_WEBBOOK>
118-00-3

> <PDBECHEM_ACCESSION>
GMP

> <WIKIPEDIA_ACCESSION>
Guanosine

> <YMDB_ACCESSION>
YMDB00509

> <PUBMED_CITATION>
11434576; 15471343; 15920424; 17202332; 18191898; 18549801; 21435378; 21500353; 21515778; 21671255; 21774919; 2559771; 17060520

$$$$

Marvin  05130714272D          

 27 29  0  0  1  0            999 V2000
    2.8984    5.6343    0.0000 N   0  0  0  0  0  0  0  0  0  0  0  0
    2.8984    4.8093    0.0000 C   0  0  0  0  0  0  0  0  0  0  0  0
    2.1839    4.3968    0.0000 N   0  0  0  0  0  0  0  0  0  0  0  0
    2.1838    3.5718    0.0000 C   0  0  0  0  0  0  0  0  0  0  0  0
    2.8983    3.1593    0.0000 N   0  0  0  0  0  0  0  0  0  0  0  0
    3.6128    3.5718    0.0000 C   0  0  0  0  0  0  0  0  0  0  0  0
    3.6128    4.3968    0.0000 C   0  0  0  0  0  0  0  0  0  0  0  0
    4.3974    4.6517    0.0000 N   0  0  0  0  0  0  0  0  0  0  0  0
    4.8824    3.9842    0.0000 C   0  0  0  0  0  0  0  0  0  0  0  0
    4.3974    3.3168    0.0000 N   0  0  0  0  0  0  0  0  0  0  0  0
    4.6524    2.5320    0.0000 C   0  0  2  0  0  0  0  0  0  0  0  0
    4.1674    1.8647    0.0000 O   0  0  0  0  0  0  0  0  0  0  0  0
    4.6523    1.1971    0.0000 C   0  0  1  0  0  0  0  0  0  0  0  0
    5.4369    1.4521    0.0000 C   0  0  1  0  0  0  0  0  0  0  0  0
    6.1044    0.9671    0.0000 O   0  0  0  0  0  0  0  0  0  0  0  0
    5.4370    2.2771    0.0000 C   0  0  1  0  0  0  0  0  0  0  0  0
    6.1044    2.7620    0.0000 O   0  0  0  0  0  0  0  0  0  0  0  0
    3.5723    0.4125    0.0000 O   0  0  0  0  0  0  0  0  0  0  0  0
    2.8578   -0.8250    0.0000 O   0  0  0  0  0  0  0  0  0  0  0  0
    2.8578    0.0000    0.0000 P   0  0  3  0  0  0  0  0  0  0  0  0
    2.8578    0.8250    0.0000 O   0  0  0  0  0  0  0  0  0  0  0  0
    2.1434    0.4125    0.0000 O   0  0  0  0  0  0  0  0  0  0  0  0
    1.4289   -0.8250    0.0000 O   0  0  0  0  0  0  0  0  0  0  0  0
    1.4289    0.0000    0.0000 P   0  0  3  0  0  0  0  0  0  0  0  0
    1.4289    0.8447    0.0000 O   0  0  0  0  0  0  0  0  0  0  0  0
    0.7144    0.4125    0.0000 O   0  0  0  0  0  0  0  0  0  0  0  0
    4.3973    0.4125    0.0000 C   0  0  0  0  0  0  0  0  0  0  0  0
  1  2  1  0  0  0  0
  2  3  2  0  0  0  0
  2  7  1  0  0  0  0
  3  4  1  0  0  0  0
  4  5  2  0  0  0  0
  5  6  1  0  0  0  0
  6  7  2  0  0  0  0
  6 10  1  0  0  0  0
  7  8  1  0  0  0  0
  8  9  2  0  0  0  0
  9 10  1  0  0  0  0
 11 10  1  1  0  0  0
 11 12  1  0  0  0  0
 11 16  1  0  0  0  0
 12 13  1  0  0  0  0
 13 27  1  1  0  0  0
 13 14  1  0  0  0  0
 14 15  1  6  0  0  0
 14 16  1  0  0  0  0
 16 17  1  6  0  0  0
 18 20  1  0  0  0  0
 20 19  2  0  0  0  0
 20 22  1  0  0  0  0
 20 21  1  0  0  0  0
 22 24  1  0  0  0  0
 24 23  2  0  0  0  0
 24 26  1  0  0  0  0
 24 25  1  0  0  0  0
 27 18  1  0  0  0  0
M  END
> <ID>
CHEBI:16761

> <NAME>
ADP

> <DEFINITION>
A purine ribonucleoside 5'-diphosphate having adenine as the nucleobase.

> <STAR>
3

> <SECONDARY_ID>
CHEBI:40553; CHEBI:13222; CHEBI:2342; CHEBI:22244

> <SYNONYM>
H3adp; ADP; ADENOSINE-5'-DIPHOSPHATE; Adenosine 5'-diphosphate; 5'-adenylphosphoric acid

> <IUPAC_NAME>
adenosine 5'-(trihydrogen diphosphate)

> <FORMULA>
C10H15N5O10P2

> <MASS>
427.20110

> <MONOISOTOPIC_MASS>
427.02942

> <CHARGE>
0

> <SMILES>
Nc1ncnc2n(cnc12)[C@@H]1O[C@H](COP(O)(=O)OP(O)(O)=O)[C@@H](O)[C@H]1O

> <INCHI>
InChI=1S/C10H15N5O10P2/c11-8-5-9(13-2-12-8)15(3-14-5)10-7(17)6(16)4(24-10)1-23-27(21,22)25-26(18,19)20/h2-4,6-7,10,16-17H,1H2,(H,21,22)(H2,11,12,13)(H2,18,19,20)/t4-,6-,7-,10-/m1/s1

> <INCHIKEY>
XTWYTFMLZFPYCI-KQYNXXCUSA-N

> <BEILSTEIN_REGISTRY_NUMBER>
67722

> <CAS_REGISTRY_NUMBER>
20398-34-9

> <GMELIN_REGISTRY_NUMBER>
88452

> <REAXYS_REGISTRY_NUMBER>
67722

> <CHEMIDPLUS>
58-64-0

> <DRUGBANK_ACCESSION>
DB03431

> <KEGG_COMPOUND_ACCESSION>
C00008

> <KEGG_GLYCAN_ACCESSION>
G11113

> <KNAPSACK_ACCESSION>
C00019353

> <PDBECHEM_ACCESSION>
ADP

> <PUBMED_CITATION>
16295522

$$$$

Marvin  09280623512D          

  9  9  0  0  0  0            999 V2000
    0.0000   -0.8250    0.0000 C   0  0  0  0  0  0  0  0  0  0  0  0
    0.0000   -1.6500    0.0000 Cl  0  0  0  0  0  0  0  0  0  0  0  0
   -0.7145    0.4125    0.0000 C   0  0  0  0  0  0  0  0  0  0  0  0
    0.7145   -0.4125    0.0000 C   0  0  0  0  0  0  0  0  0  0  0  0
    1.4289   -0.8250    0.0000 Cl  0  0  0  0  0  0  0  0  0  0  0  0
   -0.7145   -0.4125    0.0000 C   0  0  0  0  0  0  0  0  0  0  0  0
    0.0000    0.8250    0.0000 C   0  0  0  0  0  0  0  0  0  0  0  0
    0.7145    0.4125    0.0000 C   0  0  0  0  0  0  0  0  0  0  0  0
    0.0000    1.6500    0.0000 N   0  0  0  0  0  0  0  0  0  0  0  0
  4  8  1  0  0  0  0
  7  8  2  0  0  0  0
  1  4  2  0  0  0  0
  3  7  1  0  0  0  0
  6  1  1  0  0  0  0
  2  1  1  0  0  0  0
  6  3  2  0  0  0  0
  4  5  1  0  0  0  0
  7  9  1  0  0  0  0
M  END
> <ID>
CHEBI:16767

> <NAME>
3,4-dichloroaniline

> <DEFINITION>
A dichloroaniline having the two chloro-substituents at the 3- and 4-positions.

> <STAR>
3

> <SECONDARY_ID>
CHEBI:1371; CHEBI:11688; CHEBI:19872

> <SYNONYM>
m,p-dichloroaniline; 4,5-dichloroaniline; 3,4-dichlorobenzenamine; 3,4-dichloroaniline; 3,4-Dichloroaniline; 3,4-dichloraniline; 3,4-Dichloranilin; 3,4-DCA; 1-amino-3,4-dichlorobenzene

> <IUPAC_NAME>
3,4-dichloroaniline

> <FORMULA>
C6H5Cl2N

> <MASS>
162.01604

> <MONOISOTOPIC_MASS>
160.97990

> <CHARGE>
0

> <SMILES>
Nc1ccc(Cl)c(Cl)c1

> <INCHI>
InChI=1S/C6H5Cl2N/c7-5-2-1-4(9)3-6(5)8/h1-3H,9H2

> <INCHIKEY>
SDYWXFYBZPNOFX-UHFFFAOYSA-N

> <BEILSTEIN_REGISTRY_NUMBER>
636837

> <CAS_REGISTRY_NUMBER>
95-76-1

> <GMELIN_REGISTRY_NUMBER>
602350

> <CHEMIDPLUS>
95-76-1

> <KEGG_COMPOUND_ACCESSION>
C02791

> <NIST_CHEMISTRY_WEBBOOK>
95-76-1

> <PUBMED_CITATION>
16169045

$$$$

Marvin  11090911232D          

 12 11  0  0  1  0            999 V2000
   10.7660   -5.2609    0.0000 C   0  0  1  0  0  0  0  0  0  0  0  0
   10.0514   -5.6732    0.0000 C   0  0  1  0  0  0  0  0  0  0  0  0
    9.3368   -5.2608    0.0000 C   0  0  1  0  0  0  0  0  0  0  0  0
    8.6225   -5.6733    0.0000 C   0  0  2  0  0  0  0  0  0  0  0  0
    7.9079   -5.2607    0.0000 C   0  0  0  0  0  0  0  0  0  0  0  0
   11.4805   -5.6733    0.0000 C   0  0  0  0  0  0  0  0  0  0  0  0
   10.0514   -6.4983    0.0000 O   0  0  0  0  0  0  0  0  0  0  0  0
    9.3368   -4.4358    0.0000 O   0  0  0  0  0  0  0  0  0  0  0  0
    8.6225   -6.4983    0.0000 O   0  0  0  0  0  0  0  0  0  0  0  0
    7.1934   -5.6732    0.0000 O   0  0  0  0  0  0  0  0  0  0  0  0
   12.1949   -5.2608    0.0000 O   0  0  0  0  0  0  0  0  0  0  0  0
   10.7660   -4.4358    0.0000 O   0  0  0  0  0  0  0  0  0  0  0  0
  2  1  1  0  0  0  0
  3  2  1  0  0  0  0
  4  3  1  0  0  0  0
  5  4  1  0  0  0  0
  6  1  1  0  0  0  0
  2  7  1  6  0  0  0
  3  8  1  1  0  0  0
  4  9  1  1  0  0  0
 10  5  1  0  0  0  0
 11  6  1  0  0  0  0
  1 12  1  6  0  0  0
M  END
> <ID>
CHEBI:16813

> <NAME>
galactitol

> <DEFINITION>
An optically inactive hexitol having meso-configuration.

> <STAR>
3

> <SECONDARY_ID>
CHEBI:5251; CHEBI:53575; CHEBI:14286; CHEBI:24139

> <SYNONYM>
Melampyrit; Melampyrin; L-galactitol; galactitol; Galactitol; Euonymit; Dulcose; Dulcitol; D-galactitol; D-Dulcitol; (2R,3S,4R,5S)-hexane-1,2,3,4,5,6-hexol

> <IUPAC_NAME>
meso-galactitol

> <FORMULA>
C6H14O6

> <MASS>
182.17180

> <MONOISOTOPIC_MASS>
182.07904

> <CHARGE>
0

> <SMILES>
OC[C@H](O)[C@@H](O)[C@@H](O)[C@H](O)CO

> <INCHI>
InChI=1S/C6H14O6/c7-1-3(9)5(11)6(12)4(10)2-8/h3-12H,1-2H2/t3-,4+,5+,6-

> <INCHIKEY>
FBPFZTCFMRRESA-GUCUJZIJSA-N

> <BEILSTEIN_REGISTRY_NUMBER>
1721903

> <CAS_REGISTRY_NUMBER>
608-66-2

> <GMELIN_REGISTRY_NUMBER>
83163

> <REAXYS_REGISTRY_NUMBER>
1721903

> <CHEMIDPLUS>
608-66-2

> <HMDB_ACCESSION>
HMDB0000107

> <KEGG_COMPOUND_ACCESSION>
C01697

> <KNAPSACK_ACCESSION>
C00001160

> <NIST_CHEMISTRY_WEBBOOK>
608-66-2

> <WIKIPEDIA_ACCESSION>
Galactitol

> <PUBMED_CITATION>
16664750; 16901854; 17336832; 17979222; 21501963; 22155165; 22628202; 22654107; 23830453; 24643482

$$$$

Ketcher 01281616252D 1   1.00000     0.00000     0

 28 31  0     1  0            999 V2000
   16.2146   -5.1143    0.0000 C   0  0  0  0  0  0  0  0  0  0  0  0
   15.3486   -2.6143    0.0000 C   0  0  0  0  0  0  0  0  0  0  0  0
   18.0315   -3.9232    0.0000 C   0  0  0  0  0  0  0  0  0  0  0  0
   15.3486   -5.6143    0.0000 C   0  0  0  0  0  0  0  0  0  0  0  0
   14.4825   -5.1143    0.0000 C   0  0  0  0  0  0  0  0  0  0  0  0
   13.6165   -3.6143    0.0000 C   0  0  0  0  0  0  0  0  0  0  0  0
   16.2146   -2.1143    0.0000 C   0  0  0  0  0  0  0  0  0  0  0  0
   18.0315   -2.3052    0.0000 C   0  0  0  0  0  0  0  0  0  0  0  0
   18.6194   -3.1143    0.0000 C   0  0  0  0  0  0  0  0  0  0  0  0
   13.6165   -5.6143    0.0000 C   0  0  0  0  0  0  0  0  0  0  0  0
   12.7503   -4.1143    0.0000 C   0  0  0  0  0  0  0  0  0  0  0  0
   18.3406   -1.3541    0.0000 O   0  0  0  0  0  0  0  0  0  0  0  0
   12.7503   -5.1143    0.0000 C   0  0  0  0  0  0  0  0  0  0  0  0
   16.2146   -4.1143    0.0000 C   0  0  0  0  0  0  0  0  0  0  0  0
   16.2146   -3.1143    0.0000 H   0  0  0  0  0  0  0  0  0  0  0  0
   15.3486   -3.6143    0.0000 C   0  0  0  0  0  0  0  0  0  0  0  0
   15.3486   -4.6143    0.0000 H   0  0  0  0  0  0  0  0  0  0  0  0
   17.0806   -3.6143    0.0000 C   0  0  0  0  0  0  0  0  0  0  0  0
   17.0806   -4.6143    0.0000 H   0  0  0  0  0  0  0  0  0  0  0  0
   14.4825   -4.1143    0.0000 C   0  0  0  0  0  0  0  0  0  0  0  0
   14.4825   -3.1143    0.0000 C   0  0  0  0  0  0  0  0  0  0  0  0
   17.0806   -2.6143    0.0000 C   0  0  0  0  0  0  0  0  0  0  0  0
   17.0806   -1.6143    0.0000 C   0  0  0  0  0  0  0  0  0  0  0  0
   11.8843   -5.6143    0.0000 O   0  0  0  0  0  0  0  0  0  0  0  0
   11.0183   -5.1143    0.0000 S   0  0  0  0  0  0  0  0  0  0  0  0
   10.1523   -5.6143    0.0000 O   0  0  0  0  0  0  0  0  0  0  0  0
   10.5182   -4.2483    0.0000 O   0  0  0  0  0  0  0  0  0  0  0  0
   11.5183   -4.2483    0.0000 O   0  0  0  0  0  0  0  0  0  0  0  0
 14 16  1  0     0  0
 18 14  1  0     0  0
 14  1  1  0     0  0
 16 20  1  0     0  0
 16  2  1  0     0  0
 18 22  1  0     0  0
 18  3  1  0     0  0
  1  4  1  0     0  0
 20  5  1  0     0  0
 20  6  1  0     0  0
  2  7  1  0     0  0
 22  8  1  0     0  0
  3  9  1  0     0  0
  5 10  1  0     0  0
  6 11  1  0     0  0
  8 12  2  0     0  0
 10 13  1  0     0  0
 13 24  1  1     0  0
 22  7  1  0     0  0
  4  5  2  0     0  0
  8  9  1  0     0  0
 11 13  1  0     0  0
 14 15  1  1     0  0
 16 17  1  6     0  0
 18 19  1  6     0  0
 20 21  1  1     0  0
 22 23  1  1     0  0
 24 25  1  0     0  0
 25 26  1  0     0  0
 27 25  2  0     0  0
 28 25  2  0     0  0
M  END
> <ID>
CHEBI:16814

> <NAME>
dehydroepiandrosterone sulfate

> <DEFINITION>
A steroid sulfate that is the 3-sulfooxy derivative of dehydroepiandrosterone.

> <STAR>
3

> <SECONDARY_ID>
CHEBI:20247; CHEBI:61003; CHEBI:11912; CHEBI:1724

> <SYNONYM>
Prasterone sulfate; DHEAS; DHEA-S; DHEA sulfate; DHEA sulfate; Dehydroisoandrosterone-3-sulfate; Dehydroisoandrosterone sulfate; Dehydroepiandrosterone sulphate; Dehydroepiandrosterone sulfate; Dehydroepiandrosterone monosulfate; Dehydroepiandrosterone 3-sulfate; Androst-5-en-17-on-3beta-yl sulfuric acid; 3beta-Hydroxyandrost-5-en-17-one 3-sulfate; 3beta-hydroxyandrost-5-en-17-one 3-sulfate; 3beta-Hydroxyandrost-5-en-17-one 3-sulfate; 3-O-Sulfodehydroepiandrosterone; 17-oxoandrost-5-en-3beta-yl hydrogen sulphate; 17-Ketoandrost-5-en-3beta-yl sulfate; (3-beta)-3-(Sulfooxy)androst-5-en-17-one

> <IUPAC_NAME>
17-oxoandrost-5-en-3beta-yl hydrogen sulfate

> <FORMULA>
C19H28O5S; C19H28O5S

> <MASS>
368.489

> <MONOISOTOPIC_MASS>
368.16575

> <CHARGE>
0

> <SMILES>
C1[C@@]2([C@@]([C@@]3(C(C[C@@H](OS(O)(=O)=O)CC3)=C1)C)(CC[C@]4([C@]2(CCC4=O)[H])C)[H])[H]

> <INCHI>
InChI=1S/C19H28O5S/c1-18-9-7-13(24-25(21,22)23)11-12(18)3-4-14-15-5-6-17(20)19(15,2)10-8-16(14)18/h3,13-16H,4-11H2,1-2H3,(H,21,22,23)/t13-,14-,15-,16-,18-,19-/m0/s1

> <INCHIKEY>
CZWCKYRVOZZJNM-USOAJAOKSA-N

> <CAS_REGISTRY_NUMBER>
651-48-9

> <REAXYS_REGISTRY_NUMBER>
2227078

> <CHEMIDPLUS>
651-48-9

> <HMDB_ACCESSION>
HMDB0001032

> <KEGG_COMPOUND_ACCESSION>
C04555

> <LIPID_MAPS_INSTANCE_ACCESSION>
LMST05020010

> <METACYC_ACCESSION>
DEHYDRO-EPIANDROSTERONE-SULFATE

> <WIKIPEDIA_ACCESSION>
Dehydroepiandrosterone_sulfate

> <PUBMED_CITATION>
15374110; 20797618; 22770225; 9661815; 18307294

$$$$

Mrv0541 02071409502D          

 10 10  0  0  0  0            999 V2000
   -0.4049    0.0824    0.0000 C   0  0  0  0  0  0  0  0  0  0  0  0
   -1.1193   -0.3300    0.0000 N   0  3  0  0  0  0  0  0  0  0  0  0
    0.3096   -0.3301    0.0000 C   0  0  0  0  0  0  0  0  0  0  0  0
   -0.4049    0.9074    0.0000 C   0  0  0  0  0  0  0  0  0  0  0  0
   -1.1193   -1.1550    0.0000 O   0  0  0  0  0  0  0  0  0  0  0  0
   -1.8338    0.0825    0.0000 O   0  5  0  0  0  0  0  0  0  0  0  0
    1.0240    0.0824    0.0000 C   0  0  0  0  0  0  0  0  0  0  0  0
    0.3096    1.3199    0.0000 C   0  0  0  0  0  0  0  0  0  0  0  0
    1.0240    0.9074    0.0000 C   0  0  0  0  0  0  0  0  0  0  0  0
    1.7385    1.3198    0.0000 O   0  0  0  0  0  0  0  0  0  0  0  0
  1  2  1  0  0  0  0
  1  3  2  0  0  0  0
  1  4  1  0  0  0  0
  2  5  2  0  0  0  0
  2  6  1  0  0  0  0
  3  7  1  0  0  0  0
  4  8  2  0  0  0  0
  7  9  2  0  0  0  0
  9 10  1  0  0  0  0
  8  9  1  0  0  0  0
M  CHG  2   2   1   6  -1
M  END
> <ID>
CHEBI:16836

> <NAME>
4-nitrophenol

> <DEFINITION>
A member of the class of 4-nitrophenols that is phenol in which the hydrogen that is para to the hydroxy group has been replaced by a nitro group.

> <STAR>
3

> <SECONDARY_ID>
CHEBI:44390; CHEBI:1913; CHEBI:12034; CHEBI:20457

> <SYNONYM>
PNP; paranitrophenol; P-NITROPHENOL; p-Nitrophenol; p-hydroxynitrobenzene; Niphen; 4-Nitrophenol; 4-Hydroxynitrobenzene

> <IUPAC_NAME>
4-nitrophenol

> <FORMULA>
C6H5NO3

> <MASS>
139.10880

> <MONOISOTOPIC_MASS>
139.02694

> <CHARGE>
0

> <SMILES>
Oc1ccc(cc1)[N+]([O-])=O

> <INCHI>
InChI=1S/C6H5NO3/c8-6-3-1-5(2-4-6)7(9)10/h1-4,8H

> <INCHIKEY>
BTJIUGUIPKRLHP-UHFFFAOYSA-N

> <BEILSTEIN_REGISTRY_NUMBER>
1281877

> <CAS_REGISTRY_NUMBER>
100-02-7

> <GMELIN_REGISTRY_NUMBER>
3311

> <REAXYS_REGISTRY_NUMBER>
1281877

> <CHEMIDPLUS>
100-02-7

> <DRUGBANK_ACCESSION>
DB04417

> <HMDB_ACCESSION>
HMDB0001232

> <KEGG_COMPOUND_ACCESSION>
C00870

> <METACYC_ACCESSION>
P-NITROPHENOL

> <NIST_CHEMISTRY_WEBBOOK>
100-02-7

> <PDBECHEM_ACCESSION>
NPO

> <WIKIPEDIA_ACCESSION>
4-Nitrophenol

> <PUBMED_CITATION>
19365648

$$$$

Marvin  04270619112D          

  6  6  0  0  0  0            999 V2000
   -0.7145    0.4125    0.0000 C   0  0  0  0  0  0  0  0  0  0  0  0
    0.0000    0.8250    0.0000 N   0  0  0  0  0  0  0  0  0  0  0  0
    0.7145    0.4125    0.0000 C   0  0  0  0  0  0  0  0  0  0  0  0
   -0.7145   -0.4125    0.0000 C   0  0  0  0  0  0  0  0  0  0  0  0
    0.0000   -0.8250    0.0000 C   0  0  0  0  0  0  0  0  0  0  0  0
    0.7145   -0.4125    0.0000 N   0  0  0  0  0  0  0  0  0  0  0  0
  2  1  1  0  0  0  0
  3  2  2  0  0  0  0
  4  1  2  0  0  0  0
  5  4  1  0  0  0  0
  6  5  2  0  0  0  0
  3  6  1  0  0  0  0
M  END
> <ID>
CHEBI:16898

> <NAME>
pyrimidine

> <DEFINITION>
The parent compound of the pyrimidines; a diazine having the two nitrogens at the 1- and 3-positions.

> <STAR>
3

> <SECONDARY_ID>
CHEBI:44847; CHEBI:8675; CHEBI:14982

> <SYNONYM>
Pyrimidine base; PYRIMIDINE; Pyrimidine; pyrimidine; Pyrimidin; Metadiazine; m-diazine; 1,3-Diazine; 1,3-Diazin

> <IUPAC_NAME>
pyrimidine

> <FORMULA>
C4H4N2

> <MASS>
80.08804

> <MONOISOTOPIC_MASS>
80.03745

> <CHARGE>
0

> <SMILES>
c1cncnc1

> <INCHI>
InChI=1S/C4H4N2/c1-2-5-4-6-3-1/h1-4H

> <INCHIKEY>
CZPWVGJYEJSRLH-UHFFFAOYSA-N

> <BEILSTEIN_REGISTRY_NUMBER>
103894

> <CAS_REGISTRY_NUMBER>
289-95-2

> <GMELIN_REGISTRY_NUMBER>
49324

> <CHEMIDPLUS>
289-95-2

> <KEGG_COMPOUND_ACCESSION>
C00396

> <NIST_CHEMISTRY_WEBBOOK>
289-95-2

> <PDBECHEM_ACCESSION>
P1R

> <PUBMED_CITATION>
8070089

$$$$
ChEBI


 25 28  0  0  1  0  0  0  0  0 20 V2000
    9.8254   -7.1059    0.0000 C   0  0  0  0  0  0  0  0  0  0  0  0
    8.6592   -7.7454    0.0000 C   0  0  0  0  0  0  0  0  0  0  0  0
    8.6592   -9.0871    0.0000 C   0  0  0  0  0  0  0  0  0  0  0  0
    9.8254   -9.7517    0.0000 C   0  0  0  0  0  0  0  0  0  0  0  0
   10.9665   -9.0871    0.0000 C   0  0  0  0  0  0  0  0  0  0  0  0
   12.1201   -9.7517    0.0000 C   0  0  0  0  0  0  0  0  0  0  0  0
   13.2988   -9.0871    0.0000 C   0  0  0  0  0  0  0  0  0  0  0  0
   13.2988   -7.7454    0.0000 C   0  0  0  0  0  0  0  0  0  0  0  0
   12.1201   -7.1059    0.0000 C   0  0  0  0  0  0  0  0  0  0  0  0
   10.9665   -7.7454    0.0000 C   0  0  0  0  0  0  0  0  0  0  0  0
   12.1201   -5.8018    0.0000 C   0  0  0  0  0  0  0  0  0  0  0  0
   13.2988   -5.1247    0.0000 C   0  0  0  0  0  0  0  0  0  0  0  0
   14.4273   -5.8018    0.0000 C   0  0  0  0  0  0  0  0  0  0  0  0
   14.4273   -7.1059    0.0000 C   0  0  0  0  0  0  0  0  0  0  0  0
   15.6938   -7.5197    0.0000 C   0  0  0  0  0  0  0  0  0  0  0  0
   16.4461   -6.4664    0.0000 C   0  0  0  0  0  0  0  0  0  0  0  0
   15.6938   -5.3880    0.0000 C   0  0  0  0  0  0  0  0  0  0  0  0
   14.4273   -4.4350    0.0000 C   0  0  0  0  0  0  0  0  0  0  0  0
   10.9665   -6.4413    0.0000 C   0  0  0  0  0  0  0  0  0  0  0  0
   14.4273   -8.4476    0.0000 H   0  0  0  0  0  0  0  0  0  0  0  0
   13.2988   -6.4162    0.0000 H   0  0  0  0  0  0  0  0  0  0  0  0
   12.1201   -8.4476    0.0000 H   0  0  0  0  0  0  0  0  0  0  0  0
    7.5240   -9.7407    0.0000 O   0  0  0  0  0  0  0  0  0  0  0  0
   16.0740   -4.0027    0.0000 O   0  0  0  0  0  0  0  0  0  0  0  0
   10.9693  -10.1333    0.0000 H   0  0  0  0  0  0  0  0  0  0  0  0
 14 13  1  0  0  0  0
 17 13  1  0  0  0  0
 12 13  1  0  0  0  0
 13 18  1  1  0  0  0
  8 14  1  0  0  0  0
 15 14  1  0  0  0  0
 14 20  1  6  0  0  0
 11  9  1  0  0  0  0
 10  9  1  0  0  0  0
  8  9  1  0  0  0  0
  9 22  1  6  0  0  0
  7  8  1  0  0  0  0
  8 21  1  1  0  0  0
  5 10  1  0  0  0  0
 10 19  1  1  0  0  0
  1 10  1  0  0  0  0
 16 17  1  0  0  0  0
 11 12  1  0  0  0  0
 16 15  1  0  0  0  0
  6  7  1  0  0  0  0
  4  5  1  0  0  0  0
  6  5  1  0  0  0  0
  2  1  1  0  0  0  0
  3  4  1  0  0  0  0
  3  2  1  0  0  0  0
 23  3  2  0  0  0  0
 24 17  2  0  0  0  0
  5 25  1  1  0  0  0
M  ZZC   1 1
M  ZZC   2 2
M  ZZC   3 3
M  ZZC   4 4
M  ZZC   5 5
M  ZZC   6 6
M  ZZC   7 7
M  ZZC   8 8
M  ZZC   9 9
M  ZZC  10 10
M  ZZC  11 11
M  ZZC  12 12
M  ZZC  13 13
M  ZZC  14 14
M  ZZC  15 15
M  ZZC  16 16
M  ZZC  17 17
M  ZZC  18 18
M  ZZC  19 19
M  END
> <ID>
CHEBI:16985

> <NAME>
5beta-androstane-3,17-dione

> <DEFINITION>
An androstane-3,17-dione with a 5β-configuration.

> <STAR>
3

> <SECONDARY_ID>
CHEBI:2145; CHEBI:40692; CHEBI:12176; CHEBI:20660

> <SYNONYM>
Etiocholanedione; Etiocholane-3,17-dione; 5-beta-androstane-3,17-dione; 5beta-Androstane-3,17-dione; 5beta-androstane-3,17-dione

> <IUPAC_NAME>
5beta-androstane-3,17-dione

> <FORMULA>
C19H28O2

> <MASS>
288.42442

> <MONOISOTOPIC_MASS>
288.20893

> <CHARGE>
0

> <SMILES>
[H][C@]12CC[C@@]3([H])[C@]4([H])CCC(=O)[C@@]4(C)CC[C@]3([H])[C@@]1(C)CCC(=O)C2

> <INCHI>
InChI=1S/C19H28O2/c1-18-9-7-13(20)11-12(18)3-4-14-15-5-6-17(21)19(15,2)10-8-16(14)18/h12,14-16H,3-11H2,1-2H3/t12-,14+,15+,16+,18+,19+/m1/s1

> <INCHIKEY>
RAJWOBJTTGJROA-QJISAEMRSA-N

> <CAS_REGISTRY_NUMBER>
1229-12-5

> <REAXYS_REGISTRY_NUMBER>
2218897

> <CHEMIDPLUS>
1229-12-5

> <DRUGBANK_ACCESSION>
DB07375

> <HMDB_ACCESSION>
HMDB0003769

> <KEGG_COMPOUND_ACCESSION>
C03772

> <LIPID_MAPS_INSTANCE_ACCESSION>
LMST02020058

> <METACYC_ACCESSION>
5-BETA-ANDROSTANE-317-DIONE

> <PDBECHEM_ACCESSION>
ANO

$$$$

Marvin  04150817022D          

 22 22  0  0  1  0            999 V2000
    0.0000    0.8250    0.0000 O   0  0  0  0  0  0  0  0  0  0  0  0
   -0.7145    0.4125    0.0000 C   0  0  2  0  0  0  0  0  0  0  0  0
   -0.7145   -0.4125    0.0000 C   0  0  1  0  0  0  0  0  0  0  0  0
    0.0000   -0.8250    0.0000 C   0  0  2  0  0  0  0  0  0  0  0  0
    0.7145   -0.4125    0.0000 C   0  0  0  0  0  0  0  0  0  0  0  0
    1.4290    0.8249    0.0000 C   0  0  0  0  0  0  0  0  0  0  0  0
   -0.0001   -1.6499    0.0000 O   0  0  0  0  0  0  0  0  0  0  0  0
    2.1433    0.4124    0.0000 O   0  0  0  0  0  0  0  0  0  0  0  0
    1.4290    1.6499    0.0000 O   0  0  0  0  0  0  0  0  0  0  0  0
   -1.4289    0.8251    0.0000 C   0  0  1  0  0  0  0  0  0  0  0  0
   -2.1434    0.4126    0.0000 C   0  0  1  0  0  0  0  0  0  0  0  0
   -1.4288    1.6500    0.0000 O   0  0  0  0  0  0  0  0  0  0  0  0
   -2.8578    0.8251    0.0000 C   0  0  0  0  0  0  0  0  0  0  0  0
   -2.1434   -0.4124    0.0000 O   0  0  0  0  0  0  0  0  0  0  0  0
   -3.5722    0.4127    0.0000 O   0  0  0  0  0  0  0  0  0  0  0  0
   -0.7144    1.2375    0.0000 H   0  0  0  0  0  0  0  0  0  0  0  0
    0.7145    0.4125    0.0000 C   0  0  3  0  0  0  0  0  0  0  0  0
    0.7145    1.2375    0.0000 O   0  0  0  0  0  0  0  0  0  0  0  0
   -1.4289   -0.8249    0.0000 N   0  0  0  0  0  0  0  0  0  0  0  0
   -0.7144   -2.0624    0.0000 C   0  0  0  0  0  0  0  0  0  0  0  0
   -1.4289   -1.6499    0.0000 C   0  0  0  0  0  0  0  0  0  0  0  0
   -2.1434   -2.0624    0.0000 O   0  0  0  0  0  0  0  0  0  0  0  0
  2  1  1  0  0  0  0
  2 10  1  0  0  0  0
  2 16  1  1  0  0  0
  2  3  1  0  0  0  0
  3 19  1  1  0  0  0
  3  4  1  0  0  0  0
  4  7  1  6  0  0  0
  4  5  1  0  0  0  0
  1 17  1  0  0  0  0
 17  5  1  0  0  0  0
 17  6  1  0  0  0  0
  6  8  1  0  0  0  0
  6  9  2  0  0  0  0
 10 11  1  0  0  0  0
 10 12  1  1  0  0  0
 11 13  1  0  0  0  0
 11 14  1  6  0  0  0
 13 15  1  0  0  0  0
 17 18  1  0  0  0  0
 19 21  1  0  0  0  0
 21 20  1  0  0  0  0
 21 22  2  0  0  0  0
M  END
> <ID>
CHEBI:17012

> <NAME>
N-acetylneuraminic acid

> <DEFINITION>
An N-acylneuraminic acid where the N-acyl group is specified as acetyl.

> <STAR>
3

> <SECONDARY_ID>
CHEBI:7214; CHEBI:21620; CHEBI:29087

> <SYNONYM>
O-sialic acid; NeuAc; Neu5Ac; N-Acetylneuraminic acid; Aceneuramic acid; 5-Acetamido-3,5-dideoxy-D-glycero-D-galacto-2-nonulosonic acid

> <IUPAC_NAME>
5-acetamido-3,5-dideoxy-D-glycero-D-galacto-non-2-ulopyranosonic acid

> <INN>
acido aceneuramico; acidium aceneuramicum; acide aceneuramique; aceneuramic acid

> <FORMULA>
C11H19NO9

> <MASS>
309.26990

> <MONOISOTOPIC_MASS>
309.10598

> <CHARGE>
0

> <SMILES>
[H][C@]1(OC(O)(C[C@H](O)[C@H]1NC(C)=O)C(O)=O)[C@H](O)[C@H](O)CO

> <INCHI>
InChI=1S/C11H19NO9/c1-4(14)12-7-5(15)2-11(20,10(18)19)21-9(7)8(17)6(16)3-13/h5-9,13,15-17,20H,2-3H2,1H3,(H,12,14)(H,18,19)/t5-,6+,7+,8+,9+,11?/m0/s1

> <INCHIKEY>
SQVRNKJHWKZAKO-LUWBGTNYSA-N

> <BEILSTEIN_REGISTRY_NUMBER>
2951361

> <CAS_REGISTRY_NUMBER>
131-48-6

> <REAXYS_REGISTRY_NUMBER>
1398688

> <CHEMIDPLUS>
131-48-6

> <KEGG_COMPOUND_ACCESSION>
C00270

> <KNAPSACK_ACCESSION>
C00019584

> <WIKIPEDIA_ACCESSION>
N-acetylneuraminic_acid

> <PUBMED_CITATION>
14960498; 16209099; 16624269; 18487279; 19329108; 7508418; 8448384

$$$$

Marvin  05191015522D          

 27 29  0  0  0  0            999 V2000
    0.7145    0.4125    0.0000 C   0  0  0  0  0  0  0  0  0  0  0  0
    0.7145   -0.4125    0.0000 C   0  0  0  0  0  0  0  0  0  0  0  0
   -0.7145    0.4125    0.0000 C   0  0  0  0  0  0  0  0  0  0  0  0
   -0.7145   -0.4125    0.0000 C   0  0  0  0  0  0  0  0  0  0  0  0
   -1.4289    0.8250    0.0000 C   0  0  0  0  0  0  0  0  0  0  0  0
   -1.4289   -0.8250    0.0000 C   0  0  0  0  0  0  0  0  0  0  0  0
   -2.1434   -0.4125    0.0000 C   0  0  0  0  0  0  0  0  0  0  0  0
   -2.1434    0.4125    0.0000 C   0  0  0  0  0  0  0  0  0  0  0  0
    2.1434    0.4125    0.0000 C   0  0  0  0  0  0  0  0  0  0  0  0
    0.0000   -0.8250    0.0000 N   0  0  0  0  0  0  0  0  0  0  0  0
    1.4289    0.8250    0.0000 N   0  0  0  0  0  0  0  0  0  0  0  0
    1.4289   -0.8250    0.0000 C   0  0  0  0  0  0  0  0  0  0  0  0
    1.4289   -1.6500    0.0000 O   0  0  0  0  0  0  0  0  0  0  0  0
    2.8579    0.8250    0.0000 O   0  0  0  0  0  0  0  0  0  0  0  0
    2.1434   -0.4125    0.0000 N   0  0  0  0  0  0  0  0  0  0  0  0
    0.0000    0.8250    0.0000 N   0  0  0  0  0  0  0  0  0  0  0  0
    0.0000    1.6500    0.0000 C   0  0  0  0  0  0  0  0  0  0  0  0
   -0.7145    2.0625    0.0000 C   0  0  1  0  0  0  0  0  0  0  0  0
   -0.7145    2.8875    0.0000 C   0  0  1  0  0  0  0  0  0  0  0  0
   -1.4289    1.6500    0.0000 O   0  0  0  0  0  0  0  0  0  0  0  0
   -1.4289    3.3000    0.0000 C   0  0  1  0  0  0  0  0  0  0  0  0
    0.0000    3.3000    0.0000 O   0  0  0  0  0  0  0  0  0  0  0  0
   -1.4289    4.1250    0.0000 C   0  0  0  0  0  0  0  0  0  0  0  0
   -2.1434    2.8875    0.0000 O   0  0  0  0  0  0  0  0  0  0  0  0
   -2.1434    4.5375    0.0000 O   0  0  0  0  0  0  0  0  0  0  0  0
   -2.8579    0.8250    0.0000 C   0  0  0  0  0  0  0  0  0  0  0  0
   -2.8579   -0.8250    0.0000 C   0  0  0  0  0  0  0  0  0  0  0  0
 16  3  1  0  0  0  0
 16  1  1  0  0  0  0
  4 10  1  0  0  0  0
 10  2  2  0  0  0  0
 11  1  2  0  0  0  0
  2  1  1  0  0  0  0
  2 12  1  0  0  0  0
 11  9  1  0  0  0  0
 12 15  1  0  0  0  0
 15  9  1  0  0  0  0
  5  3  2  0  0  0  0
  3  4  1  0  0  0  0
  6  4  2  0  0  0  0
  5  8  1  0  0  0  0
  8  7  2  0  0  0  0
  7  6  1  0  0  0  0
  9 14  2  0  0  0  0
 12 13  2  0  0  0  0
 16 17  1  0  0  0  0
 17 18  1  0  0  0  0
 18 19  1  0  0  0  0
 18 20  1  6  0  0  0
 19 21  1  0  0  0  0
 19 22  1  1  0  0  0
 21 23  1  0  0  0  0
 21 24  1  6  0  0  0
 23 25  1  0  0  0  0
  8 26  1  0  0  0  0
  7 27  1  0  0  0  0
M  END
> <ID>
CHEBI:17015

> <NAME>
riboflavin

> <DEFINITION>
D-Ribitol in which the hydroxy group at position 5 is substituted by a 7,8-dimethyl-2,4-dioxo-3,4-dihydrobenzo[g]pteridin-10(2H)-yl moiety. It is a nutritional factor found in milk, eggs, malted barley, liver, kidney, heart, and leafy vegetables, but the richest natural source is yeast. The free form occurs only in the retina of the eye, in whey, and in urine; its principal forms in tissues and cells are as flavin mononucleotide and flavin-adenine dinucleotide.

> <STAR>
3

> <SECONDARY_ID>
CHEBI:45214; CHEBI:15044; CHEBI:27299; CHEBI:8843; CHEBI:529204

> <SYNONYM>
vitamin G; vitamin B2; Vitamin B2; RIBOFLAVINE; Riboflavin; riboflavin; Lactoflavin; E101; 7,8-Dimethyl-10-ribitylisoalloxazine; 7,8-dimethyl-10-(D-ribo-2,3,4,5-tetrahydroxypentyl)isoalloxazine; 7,8-dimethyl-10-(D-ribo-2,3,4,5-tetrahydroxypentyl)benzo[g]pteridine-2,4(3H,10H)-dione; 6,7-dimethyl-9-D-ribitylisoalloxazine; 1-deoxy-1-(7,8-dimethyl-2,4-dioxo-3,4-dihydrobenzo[g]pteridin-10(2H)-yl)pentitol

> <IUPAC_NAME>
5-deoxy-5-(7,8-dimethyl-2,4-dioxo-3,4-dihydrobenzo[g]pteridin-10(2H)-yl)-D-ribitol

> <INN>
riboflavinum; riboflavine; riboflavina; riboflavin

> <FORMULA>
C17H20N4O6

> <MASS>
376.36390

> <MONOISOTOPIC_MASS>
376.13828

> <CHARGE>
0

> <SMILES>
Cc1cc2nc3c(nc(=O)[nH]c3=O)n(C[C@H](O)[C@H](O)[C@H](O)CO)c2cc1C

> <INCHI>
InChI=1S/C17H20N4O6/c1-7-3-9-10(4-8(7)2)21(5-11(23)14(25)12(24)6-22)15-13(18-9)16(26)20-17(27)19-15/h3-4,11-12,14,22-25H,5-6H2,1-2H3,(H,20,26,27)/t11-,12+,14-/m0/s1

> <INCHIKEY>
AUNGANRZJHBGPY-SCRDCRAPSA-N

> <BEILSTEIN_REGISTRY_NUMBER>
97831

> <CAS_REGISTRY_NUMBER>
83-88-5

> <REAXYS_REGISTRY_NUMBER>
97831

> <CHEMIDPLUS>
83-88-5

> <DRUGBANK_ACCESSION>
DB00140

> <HMDB_ACCESSION>
HMDB0000244

> <KEGG_COMPOUND_ACCESSION>
C00255

> <KEGG_DRUG_ACCESSION>
D00050

> <KNAPSACK_ACCESSION>
C00001552

> <LINCS_ACCESSION>
LSM-4084

> <METACYC_ACCESSION>
RIBOFLAVIN

> <NIST_CHEMISTRY_WEBBOOK>
83-88-5

> <PDBECHEM_ACCESSION>
RBF

> <WIKIPEDIA_ACCESSION>
Riboflavin

> <PUBMED_CITATION>
16658098; 22770225; 24643482; 25108762

$$$$

Marvin  10020614562D          

 26 29  0  0  1  0            999 V2000
    0.7146   -1.2375    0.0000 C   0  0  0  0  0  0  0  0  0  0  0  0
    0.0000   -1.6499    0.0000 C   0  0  0  0  0  0  0  0  0  0  0  0
   -0.7144   -1.2375    0.0000 C   0  0  0  0  0  0  0  0  0  0  0  0
   -1.4289   -1.6499    0.0000 C   0  0  0  0  0  0  0  0  0  0  0  0
   -2.1434   -0.4125    0.0000 C   0  0  0  0  0  0  0  0  0  0  0  0
   -1.4289    0.0000    0.0000 C   0  0  0  0  0  0  0  0  0  0  0  0
   -0.7144   -0.4125    0.0000 C   0  0  2  0  0  0  0  0  0  0  0  0
    0.7146    1.2375    0.0000 C   0  0  0  0  0  0  0  0  0  0  0  0
    0.0000    0.0000    0.0000 C   0  0  2  0  0  0  0  0  0  0  0  0
    0.0000   -0.8250    0.0000 H   0  0  0  0  0  0  0  0  0  0  0  0
    1.4290   -0.8250    0.0000 H   0  0  0  0  0  0  0  0  0  0  0  0
    0.7146   -0.4125    0.0000 C   0  0  2  0  0  0  0  0  0  0  0  0
    0.7146    0.4125    0.0000 H   0  0  0  0  0  0  0  0  0  0  0  0
   -2.1434   -1.2375    0.0000 C   0  0  0  0  0  0  0  0  0  0  0  0
   -2.8579   -1.6500    0.0000 O   0  0  0  0  0  0  0  0  0  0  0  0
    0.0000    0.8250    0.0000 C   0  0  0  0  0  0  0  0  0  0  0  0
   -0.7144    0.4125    0.0000 C   0  0  0  0  0  0  0  0  0  0  0  0
    1.4290    1.6500    0.0000 C   0  0  0  0  0  0  0  0  0  0  0  0
    2.6986    0.4125    0.0000 C   0  0  0  0  0  0  0  0  0  0  0  0
    2.2137   -0.2549    0.0000 C   0  0  0  0  0  0  0  0  0  0  0  0
    1.4290    0.0000    0.0000 C   0  0  2  0  0  0  0  0  0  0  0  0
    1.4290    0.8250    0.0000 C   0  0  1  0  0  0  0  0  0  0  0  0
    2.2137    1.0800    0.0000 C   0  0  1  0  0  0  0  0  0  0  0  0
    2.4686    1.8646    0.0000 C   0  0  0  0  0  0  0  0  0  0  0  0
    1.9166    2.4777    0.0000 O   0  0  0  0  0  0  0  0  0  0  0  0
    3.2756    2.0361    0.0000 C   0  0  0  0  0  0  0  0  0  0  0  0
 12  1  1  0  0  0  0
 12  9  1  0  0  0  0
 12 21  1  0  0  0  0
  1  2  1  0  0  0  0
  2  3  1  0  0  0  0
  3  4  2  0  0  0  0
  3  7  1  0  0  0  0
  4 14  1  0  0  0  0
 14  5  1  0  0  0  0
  5  6  1  0  0  0  0
  6  7  1  0  0  0  0
  7  9  1  0  0  0  0
  9 16  1  0  0  0  0
 16  8  1  0  0  0  0
  8 22  1  0  0  0  0
  9 10  1  6  0  0  0
 21 11  1  6  0  0  0
 12 13  1  1  0  0  0
 14 15  2  0  0  0  0
  7 17  1  1  0  0  0
 22 18  1  1  0  0  0
 23 24  1  1  0  0  0
 24 26  1  0  0  0  0
 24 25  2  0  0  0  0
 19 20  1  0  0  0  0
 21 20  1  0  0  0  0
 22 21  1  0  0  0  0
 23 19  1  0  0  0  0
 23 22  1  0  0  0  0
M  END
> <ID>
CHEBI:17026

> <NAME>
progesterone

> <DEFINITION>
A C21-steroid hormone in which a pregnane skeleton carries oxo substituents at positions 3 and 20 and is unsaturated at C(4)-C(5). As a hormone, it is involved in the female menstrual cycle, pregnancy and embryogenesis of humans and other species.

> <STAR>
3

> <SECONDARY_ID>
CHEBI:18798; CHEBI:45786; CHEBI:14896; CHEBI:26269; CHEBI:439; CHEBI:8453; CHEBI:28589

> <SYNONYM>
progesterone; PROGESTERONE; Progesterone; Progesteron; luteohormone; Gelbkoerperhormon; Delta(4)-pregnene-3,20-dione; Crinone; corpus luteum hormone; Akrolutin; Agolutin; 4-Pregnene-3,20-dione; 17alpha-progesterone; (S)-Progesterone; (S)-Pregn-4-en-3,20-dione; (S)-4-Pregnene-3,20-dione

> <IUPAC_NAME>
pregn-4-ene-3,20-dione

> <FORMULA>
C21H30O2

> <MASS>
314.46170

> <MONOISOTOPIC_MASS>
314.22458

> <CHARGE>
0

> <SMILES>
[H][C@@]12CCC3=CC(=O)CC[C@]3(C)[C@@]1([H])CC[C@]1(C)[C@H](CC[C@@]21[H])C(C)=O

> <INCHI>
InChI=1S/C21H30O2/c1-13(22)17-6-7-18-16-5-4-14-12-15(23)8-10-20(14,2)19(16)9-11-21(17,18)3/h12,16-19H,4-11H2,1-3H3/t16-,17+,18-,19-,20-,21+/m0/s1

> <INCHIKEY>
RJKFOVLPORLFTN-LEKSSAKUSA-N

> <BEILSTEIN_REGISTRY_NUMBER>
1915950

> <CAS_REGISTRY_NUMBER>
57-83-0

> <GMELIN_REGISTRY_NUMBER>
708590

> <REAXYS_REGISTRY_NUMBER>
1915950

> <CHEMIDPLUS>
57-83-0

> <DRUGBANK_ACCESSION>
DB00396

> <HMDB_ACCESSION>
HMDB0001830

> <KEGG_COMPOUND_ACCESSION>
C00410

> <KEGG_DRUG_ACCESSION>
D00066

> <METACYC_ACCESSION>
PROGESTERONE

> <NIST_CHEMISTRY_WEBBOOK>
57-83-0

> <PDBECHEM_ACCESSION>
STR

> <WIKIPEDIA_ACCESSION>
Progesterone

> <PUBMED_CITATION>
10438974; 9506942

$$$$

Marvin  07010813482D          

 40 42  0  0  1  0            999 V2000
    0.7145    0.4125    0.0000 C   0  0  1  0  0  0  0  0  0  0  0  0
    0.7145   -0.4125    0.0000 C   0  0  1  0  0  0  0  0  0  0  0  0
   -0.7145    0.4125    0.0000 O   0  0  0  0  0  0  0  0  0  0  0  0
    0.0000    0.8250    0.0000 C   0  0  1  0  0  0  0  0  0  0  0  0
    0.0000   -0.8250    0.0000 C   0  0  2  0  0  0  0  0  0  0  0  0
   -0.7145   -0.4125    0.0000 C   0  0  2  0  0  0  0  0  0  0  0  0
   -1.9370    2.5474    0.0000 C   0  0  2  0  0  0  0  0  0  0  0  0
   -2.7620    2.5474    0.0000 C   0  0  0  0  0  0  0  0  0  0  0  0
   -1.4521    3.2149    0.0000 O   0  0  0  0  0  0  0  0  0  0  0  0
   -0.6674    2.9599    0.0000 C   0  0  2  0  0  0  0  0  0  0  0  0
   -0.6674    2.1349    0.0000 C   0  0  2  0  0  0  0  0  0  0  0  0
    0.0000    3.4448    0.0000 O   0  0  0  0  0  0  0  0  0  0  0  0
    0.7145    5.5073    0.0000 C   0  0  1  0  0  0  0  0  0  0  0  0
    1.4289    5.9198    0.0000 O   0  0  0  0  0  0  0  0  0  0  0  0
    0.0000    4.2698    0.0000 C   0  0  2  0  0  0  0  0  0  0  0  0
   -0.7145    5.5073    0.0000 C   0  0  1  0  0  0  0  0  0  0  0  0
   -1.4289    5.9198    0.0000 O   0  0  0  0  0  0  0  0  0  0  0  0
   -0.7145    4.6823    0.0000 C   0  0  2  0  0  0  0  0  0  0  0  0
    0.0000    5.9198    0.0000 C   0  0  1  0  0  0  0  0  0  0  0  0
    0.7145    4.6823    0.0000 C   0  0  2  0  0  0  0  0  0  0  0  0
    1.4289    4.2698    0.0000 O   0  0  0  0  0  0  0  0  0  0  0  0
   -1.4289    4.2698    0.0000 N   0  0  0  0  0  0  0  0  0  0  0  0
   -2.8579    4.2698    0.0000 N   0  0  0  0  0  0  0  0  0  0  0  0
   -2.1434    4.6823    0.0000 C   0  0  0  0  0  0  0  0  0  0  0  0
   -2.1434    5.5073    0.0000 N   0  0  0  0  0  0  0  0  0  0  0  0
    0.0000    1.6500    0.0000 O   0  0  0  0  0  0  0  0  0  0  0  0
    0.0000   -1.6500    0.0000 O   0  0  0  0  0  0  0  0  0  0  0  0
    1.4289   -0.8250    0.0000 O   0  0  0  0  0  0  0  0  0  0  0  0
   -1.4289   -0.8250    0.0000 C   0  0  0  0  0  0  0  0  0  0  0  0
   -2.1434   -0.4125    0.0000 O   0  0  0  0  0  0  0  0  0  0  0  0
    2.1434    0.4125    0.0000 C   0  0  0  0  0  0  0  0  0  0  0  0
    1.4289    0.8250    0.0000 N   0  0  0  0  0  0  0  0  0  0  0  0
    0.0000    6.7448    0.0000 N   0  0  0  0  0  0  0  0  0  0  0  0
    1.4289    6.7448    0.0000 N   0  0  0  0  0  0  0  0  0  0  0  0
    0.7145    7.1573    0.0000 C   0  0  0  0  0  0  0  0  0  0  0  0
    0.7145    7.9823    0.0000 N   0  0  0  0  0  0  0  0  0  0  0  0
   -1.8646    1.1655    0.0000 C   0  0  0  0  0  0  0  0  0  0  0  0
   -2.6896    1.1655    0.0000 O   0  0  0  0  0  0  0  0  0  0  0  0
   -1.4521    1.8800    0.0000 C   0  0  1  0  0  0  0  0  0  0  0  0
   -1.2385    1.0831    0.0000 O   0  0  0  0  0  0  0  0  0  0  0  0
  1 32  1  1  0  0  0
  2  1  1  0  0  0  0
  2 28  1  6  0  0  0
  3  4  1  0  0  0  0
  1  4  1  0  0  0  0
  4 26  1  1  0  0  0
  5  2  1  0  0  0  0
  5 27  1  1  0  0  0
  6  5  1  0  0  0  0
  3  6  1  0  0  0  0
  6 29  1  6  0  0  0
  9  7  1  0  0  0  0
  7 39  1  0  0  0  0
  7  8  1  6  0  0  0
  9 10  1  0  0  0  0
 11 10  1  0  0  0  0
 10 12  1  1  0  0  0
 39 11  1  0  0  0  0
 11 26  1  6  0  0  0
 15 12  1  6  0  0  0
 19 13  1  0  0  0  0
 20 13  1  0  0  0  0
 13 14  1  6  0  0  0
 18 15  1  0  0  0  0
 15 20  1  0  0  0  0
 19 16  1  0  0  0  0
 16 18  1  0  0  0  0
 16 17  1  6  0  0  0
 18 22  1  1  0  0  0
 19 33  1  1  0  0  0
 20 21  1  1  0  0  0
 22 24  1  0  0  0  0
 24 23  1  0  0  0  0
 24 25  2  0  0  0  0
 29 30  1  0  0  0  0
 32 31  1  0  0  0  0
 35 33  1  0  0  0  0
 34 35  1  0  0  0  0
 35 36  2  0  0  0  0
 39 37  1  1  0  0  0
 37 38  2  0  0  0  0
 39 40  1  0  0  0  0
M  END
> <ID>
CHEBI:17076

> <NAME>
streptomycin

> <DEFINITION>
A amino cyclitol glycoside that consists of streptidine having a disaccharyl moiety attached at the 4-position. The parent of the streptomycin class

> <STAR>
3

> <SECONDARY_ID>
CHEBI:45745; CHEBI:9284; CHEBI:15119; CHEBI:26784

> <SYNONYM>
STREPTOMYCIN; streomycin; SM; [2-deoxy-2-(dimethylamino)-alpha-L-glucopyranosyl]-(1->2)-[5-deoxy-3-C-formyl-alpha-L-lyxofuranosyl]-(1->4)-{N',N'''-[(1,3,5/2,4,6)-2,4,5,6-tetrahydroxycyclohexane-1,3-diyl]diguanidine}; 2,4-Diguanidino-3,5,6-trihydroxycyclohexyl 5-deoxy-2-O-(2-deoxy-2-methylamino-alpha-L-glucopyranosyl)-3-C-formyl-beta-L-lyxopentanofuranoside

> <IUPAC_NAME>
N,N'''-[(1R,2R,3S,4R,5R,6S)-4-{5-deoxy-2-O-[2-deoxy-2-(methylamino)-alpha-L-glucopyranosyl]-3-C-formyl-alpha-L-lyxofuranosyloxy}-2,5,6-trihydroxycyclohexane-1,3-diyl]diguanidine

> <INN>
streptomycin

> <BRAND_NAME>
Kantrex

> <FORMULA>
C21H39N7O12

> <MASS>
581.57434

> <MONOISOTOPIC_MASS>
581.26567

> <CHARGE>
0

> <SMILES>
CN[C@H]1[C@H](O)[C@@H](O)[C@H](CO)O[C@H]1O[C@H]1[C@@H](O[C@@H](C)[C@]1(O)C=O)O[C@H]1[C@H](O)[C@@H](O)[C@H](NC(N)=N)[C@@H](O)[C@@H]1NC(N)=N

> <INCHI>
InChI=1S/C21H39N7O12/c1-5-21(36,4-30)16(40-17-9(26-2)13(34)10(31)6(3-29)38-17)18(37-5)39-15-8(28-20(24)25)11(32)7(27-19(22)23)12(33)14(15)35/h4-18,26,29,31-36H,3H2,1-2H3,(H4,22,23,27)(H4,24,25,28)/t5-,6-,7+,8-,9-,10-,11+,12-,13-,14+,15+,16-,17-,18-,21+/m0/s1

> <INCHIKEY>
UCSJYZPVAKXKNQ-HZYVHMACSA-N

> <BEILSTEIN_REGISTRY_NUMBER>
74498

> <CAS_REGISTRY_NUMBER>
57-92-1

> <REAXYS_REGISTRY_NUMBER>
74498

> <CHEMIDPLUS>
57-92-1

> <DRUGBANK_ACCESSION>
DB01082

> <HMDB_ACCESSION>
HMDB0015214

> <KEGG_COMPOUND_ACCESSION>
C00413

> <KEGG_DRUG_ACCESSION>
D08531

> <METACYC_ACCESSION>
STREPTOMYCIN

> <PDBECHEM_ACCESSION>
SRY

> <PESTICIDES_ACCESSION>
streptomycin

> <WIKIPEDIA_ACCESSION>
Streptomycin

> <PUBMED_CITATION>
11228320; 11905029; 12118520; 13030054; 13116094; 13136149; 13596285; 13691614; 13985260; 13990247; 14623118; 14828344; 14852338; 14939639; 15081082; 15137533; 15207172; 15686853; 15736038; 16904706; 17105735; 17238915; 17429930; 18173084; 18916143; 19052412; 19335957; 21350946; 21362244; 21593257; 21937264; 22101040

$$$$

Marvin  01220821582D          

  8  7  0  0  1  0            999 V2000
   -0.3572   -0.2062    0.0000 C   0  0  1  0  0  0  0  0  0  0  0  0
    0.3572    0.2063    0.0000 C   0  0  2  0  0  0  0  0  0  0  0  0
   -1.7862   -0.2062    0.0000 O   0  0  0  0  0  0  0  0  0  0  0  0
    1.7862    0.2062    0.0000 O   0  0  0  0  0  0  0  0  0  0  0  0
   -0.3572   -1.0313    0.0000 O   0  0  0  0  0  0  0  0  0  0  0  0
    0.3572    1.0312    0.0000 O   0  0  0  0  0  0  0  0  0  0  0  0
   -1.0717    0.2063    0.0000 C   0  0  0  0  0  0  0  0  0  0  0  0
    1.0717   -0.2063    0.0000 C   0  0  0  0  0  0  0  0  0  0  0  0
  1  7  1  0  0  0  0
  1  2  1  0  0  0  0
  2  8  1  0  0  0  0
  3  7  1  0  0  0  0
  4  8  1  0  0  0  0
  1  5  1  1  0  0  0
  2  6  1  6  0  0  0
M  END
> <ID>
CHEBI:17113

> <NAME>
erythritol

> <DEFINITION>
The meso-diastereomer of butane-1,2,3,4-tetrol.

> <STAR>
3

> <SECONDARY_ID>
CHEBI:4840; CHEBI:44263; CHEBI:372804; CHEBI:14215; CHEBI:23946

> <SYNONYM>
Phycitol; Phycite; mesoerythritol; MESO-ERYTHRITOL; L-erythritol; Erythrol; erythro-tetritol; erythritol; Erythritol; Erythrite; Erythrit; (2R,3S)-butane-1,2,3,4-tetrol

> <IUPAC_NAME>
meso-erythritol

> <FORMULA>
C4H10O4

> <MASS>
122.11980

> <MONOISOTOPIC_MASS>
122.05791

> <CHARGE>
0

> <SMILES>
OC[C@H](O)[C@H](O)CO

> <INCHI>
InChI=1S/C4H10O4/c5-1-3(7)4(8)2-6/h3-8H,1-2H2/t3-,4+

> <INCHIKEY>
UNXHWFMMPAWVPI-ZXZARUISSA-N

> <BEILSTEIN_REGISTRY_NUMBER>
1719753

> <CAS_REGISTRY_NUMBER>
149-32-6

> <GMELIN_REGISTRY_NUMBER>
82499

> <REAXYS_REGISTRY_NUMBER>
1735878

> <CHEMIDPLUS>
149-32-6

> <DRUGBANK_ACCESSION>
DB04481

> <HMDB_ACCESSION>
HMDB0002994

> <KEGG_COMPOUND_ACCESSION>
C00503

> <KNAPSACK_ACCESSION>
C00001161

> <METACYC_ACCESSION>
ERYTHRITOL

> <NIST_CHEMISTRY_WEBBOOK>
149-32-6

> <PDBECHEM_ACCESSION>
MRY

> <WIKIPEDIA_ACCESSION>
Erythritol

> <PUBMED_CITATION>
163226; 16901854; 17336832; 17979222; 18369603; 19632091; 22770225; 23421980; 23574577; 23890177; 24643482; 25108762; 9862657; 12639570

$$$$

Marvin  07291314262D          

 45 48  0  0  1  0            999 V2000
    6.9965   -8.4036    0.0000 C   0  0  2  0  0  0  0  0  0  0  0  0
    6.2376   -8.8202    0.0000 O   0  0  0  0  0  0  0  0  0  0  0  0
    7.0097   -7.5787    0.0000 C   0  0  2  0  0  0  0  0  0  0  0  0
    6.3288   -7.1553    0.0000 O   0  0  0  0  0  0  0  0  0  0  0  0
    7.7436   -7.2021    0.0000 C   0  0  1  0  0  0  0  0  0  0  0  0
    7.7567   -6.3772    0.0000 O   0  0  0  0  0  0  0  0  0  0  0  0
    8.4645   -7.6504    0.0000 C   0  0  2  0  0  0  0  0  0  0  0  0
    9.1985   -7.2738    0.0000 O   0  0  0  0  0  0  0  0  0  0  0  0
    8.4514   -8.4752    0.0000 C   0  0  2  0  0  0  0  0  0  0  0  0
    7.7174   -8.8518    0.0000 O   0  0  0  0  0  0  0  0  0  0  0  0
    9.1323   -8.8986    0.0000 C   0  0  0  0  0  0  0  0  0  0  0  0
    9.8662   -8.5220    0.0000 O   0  0  0  0  0  0  0  0  0  0  0  0
   10.5871   -8.9702    0.0000 C   0  0  2  0  0  0  0  0  0  0  0  0
   11.3460   -8.5536    0.0000 C   0  0  2  0  0  0  0  0  0  0  0  0
   11.3591   -7.7288    0.0000 O   0  0  0  0  0  0  0  0  0  0  0  0
   12.0669   -9.0019    0.0000 C   0  0  1  0  0  0  0  0  0  0  0  0
   12.8009   -8.6252    0.0000 O   0  0  0  0  0  0  0  0  0  0  0  0
   12.0289   -9.8668    0.0000 C   0  0  1  0  0  0  0  0  0  0  0  0
   12.7097  -10.2901    0.0000 O   0  0  0  0  0  0  0  0  0  0  0  0
   11.2948  -10.2434    0.0000 C   0  0  2  0  0  0  0  0  0  0  0  0
   10.5740   -9.7951    0.0000 O   0  0  0  0  0  0  0  0  0  0  0  0
   11.2417  -11.0433    0.0000 C   0  0  0  0  0  0  0  0  0  0  0  0
    7.0197   -9.8533    0.0000 C   0  0  0  0  0  0  0  0  0  0  0  0
    7.2593  -10.6678    0.0000 O   0  0  0  0  0  0  0  0  0  0  0  0
    6.2213   -9.6457    0.0000 C   0  0  1  0  0  0  0  0  0  0  0  0
    5.9099  -10.4255    0.0000 C   0  0  1  0  0  0  0  0  0  0  0  0
    6.3624  -11.1281    0.0000 O   0  0  0  0  0  0  0  0  0  0  0  0
    5.0742  -10.4255    0.0000 C   0  0  2  0  0  0  0  0  0  0  0  0
    4.5739  -11.0642    0.0000 O   0  0  0  0  0  0  0  0  0  0  0  0
    4.8800   -9.5978    0.0000 C   0  0  2  0  0  0  0  0  0  0  0  0
    5.5826   -9.1454    0.0000 O   0  0  0  0  0  0  0  0  0  0  0  0
    4.0549   -9.2997    0.0000 C   0  0  0  0  0  0  0  0  0  0  0  0
    3.4375   -9.8746    0.0000 O   0  0  0  0  0  0  0  0  0  0  0  0
   10.5258  -11.4601    0.0000 O   0  0  0  0  0  0  0  0  0  0  0  0
   10.5127  -12.2849    0.0000 C   0  0  2  0  0  0  0  0  0  0  0  0
   11.2336  -12.7332    0.0000 C   0  0  2  0  0  0  0  0  0  0  0  0
   11.9675  -12.3566    0.0000 O   0  0  0  0  0  0  0  0  0  0  0  0
   11.1955  -13.5981    0.0000 C   0  0  1  0  0  0  0  0  0  0  0  0
   11.9413  -14.0063    0.0000 O   0  0  0  0  0  0  0  0  0  0  0  0
   10.4615  -13.9747    0.0000 C   0  0  1  0  0  0  0  0  0  0  0  0
   10.4484  -14.7996    0.0000 O   0  0  0  0  0  0  0  0  0  0  0  0
    9.7807  -13.5514    0.0000 C   0  0  2  0  0  0  0  0  0  0  0  0
    9.7938  -12.7265    0.0000 O   0  0  0  0  0  0  0  0  0  0  0  0
    9.0467  -13.9279    0.0000 C   0  0  0  0  0  0  0  0  0  0  0  0
    8.3336  -13.5158    0.0000 O   0  0  0  0  0  0  0  0  0  0  0  0
  1  2  1  6  0  0  0
  3  1  1  0  0  0  0
 10  1  1  0  0  0  0
 25  2  1  1  0  0  0
  3  4  1  6  0  0  0
  5  3  1  0  0  0  0
  5  6  1  1  0  0  0
  7  5  1  0  0  0  0
  7  8  1  6  0  0  0
  9  7  1  0  0  0  0
 10  9  1  0  0  0  0
  9 11  1  1  0  0  0
 12 11  1  0  0  0  0
 13 12  1  6  0  0  0
 14 13  1  0  0  0  0
 21 13  1  0  0  0  0
 14 15  1  6  0  0  0
 16 14  1  0  0  0  0
 16 17  1  1  0  0  0
 18 16  1  0  0  0  0
 18 19  1  1  0  0  0
 20 18  1  0  0  0  0
 21 20  1  0  0  0  0
 20 22  1  1  0  0  0
 24 23  1  0  0  0  0
 25 23  1  0  0  0  0
 26 25  1  0  0  0  0
 31 25  1  0  0  0  0
 26 27  1  1  0  0  0
 28 26  1  0  0  0  0
 28 29  1  6  0  0  0
 30 28  1  0  0  0  0
 31 30  1  0  0  0  0
 30 32  1  1  0  0  0
 33 32  1  0  0  0  0
 22 34  1  0  0  0  0
 35 34  1  6  0  0  0
 36 35  1  0  0  0  0
 43 35  1  0  0  0  0
 36 37  1  6  0  0  0
 38 36  1  0  0  0  0
 38 39  1  1  0  0  0
 40 38  1  0  0  0  0
 40 41  1  1  0  0  0
 42 40  1  0  0  0  0
 43 42  1  0  0  0  0
 42 44  1  1  0  0  0
 44 45  1  0  0  0  0
M  END
> <ID>
CHEBI:17164

> <NAME>
stachyose

> <DEFINITION>
A tetrasaccharide consisting of sucrose having an α-D-galactosyl-(1→6)-α-D-galactosyl moiety attached at the 6-position of the glucose.

> <STAR>
3

> <SECONDARY_ID>
CHEBI:9248; CHEBI:15105; CHEBI:26749

> <SYNONYM>
stachyose; Stachyose; O-alpha-D-galactopyranosyl-(1->6)o-alpha-D-galactopyranosyl-(1->6)O-alpha-D-galactopyranosyl-beta-D-fructofuranoside; alpha-D-Galp-(1->6)-alpha-D-Galp-(1->6)-alpha-D-Glcp-(1<->2)-beta-D-Fruf

> <IUPAC_NAME>
beta-D-fructofuranosyl alpha-D-galactopyranosyl-(1->6)-alpha-D-galactopyranosyl-(1->6)-alpha-D-glucopyranoside

> <FORMULA>
C24H42O21

> <MASS>
666.57770

> <MONOISOTOPIC_MASS>
666.22186

> <CHARGE>
0

> <SMILES>
OC[C@H]1O[C@H](OC[C@H]2O[C@H](OC[C@H]3O[C@H](O[C@]4(CO)O[C@H](CO)[C@@H](O)[C@@H]4O)[C@H](O)[C@@H](O)[C@@H]3O)[C@H](O)[C@@H](O)[C@H]2O)[C@H](O)[C@@H](O)[C@H]1O

> <INCHI>
InChI=1S/C24H42O21/c25-1-6-10(28)14(32)17(35)21(41-6)39-3-8-11(29)15(33)18(36)22(42-8)40-4-9-12(30)16(34)19(37)23(43-9)45-24(5-27)20(38)13(31)7(2-26)44-24/h6-23,25-38H,1-5H2/t6-,7-,8-,9-,10+,11+,12-,13-,14+,15+,16+,17-,18-,19-,20+,21+,22+,23-,24+/m1/s1

> <INCHIKEY>
UQZIYBXSHAGNOE-XNSRJBNMSA-N

> <CAS_REGISTRY_NUMBER>
470-55-3

> <REAXYS_REGISTRY_NUMBER>
74246

> <CHEMIDPLUS>
470-55-3

> <HMDB_ACCESSION>
HMDB0003553

> <KEGG_COMPOUND_ACCESSION>
C01613

> <KEGG_GLYCAN_ACCESSION>
G00278

> <KNAPSACK_ACCESSION>
C00001150

> <WIKIPEDIA_ACCESSION>
Stachyose

> <PUBMED_CITATION>
10334866; 10652123; 11789231; 1255266; 12801075; 16656948; 16658766; 16666190; 16668659; 18970754; 21421343; 7524207; 8479952; 8528153; 9629861

$$$$

Marvin  10030613592D          

 27 30  0  0  1  0            999 V2000
    0.7146   -1.2375    0.0000 C   0  0  0  0  0  0  0  0  0  0  0  0
    0.0000   -1.6499    0.0000 C   0  0  0  0  0  0  0  0  0  0  0  0
   -0.7144   -1.2375    0.0000 C   0  0  0  0  0  0  0  0  0  0  0  0
   -1.4289   -1.6499    0.0000 C   0  0  0  0  0  0  0  0  0  0  0  0
   -2.1434   -0.4125    0.0000 C   0  0  0  0  0  0  0  0  0  0  0  0
   -1.4289    0.0000    0.0000 C   0  0  0  0  0  0  0  0  0  0  0  0
   -0.7144   -0.4125    0.0000 C   0  0  2  0  0  0  0  0  0  0  0  0
    0.7146    1.2375    0.0000 C   0  0  0  0  0  0  0  0  0  0  0  0
    2.6986    0.4125    0.0000 C   0  0  0  0  0  0  0  0  0  0  0  0
    2.2137   -0.2549    0.0000 C   0  0  0  0  0  0  0  0  0  0  0  0
    0.0000    0.0000    0.0000 C   0  0  2  0  0  0  0  0  0  0  0  0
    0.0000   -0.8250    0.0000 H   0  0  0  0  0  0  0  0  0  0  0  0
    1.4290    0.0000    0.0000 C   0  0  1  0  0  0  0  0  0  0  0  0
    1.4290   -0.8250    0.0000 H   0  0  0  0  0  0  0  0  0  0  0  0
    0.7146   -0.4125    0.0000 C   0  0  2  0  0  0  0  0  0  0  0  0
    0.7146    0.4125    0.0000 H   0  0  0  0  0  0  0  0  0  0  0  0
    1.4290    0.8250    0.0000 C   0  0  1  0  0  0  0  0  0  0  0  0
    2.2137    1.0800    0.0000 C   0  0  1  0  0  0  0  0  0  0  0  0
   -2.1434   -1.2375    0.0000 C   0  0  0  0  0  0  0  0  0  0  0  0
   -2.8579   -1.6500    0.0000 O   0  0  0  0  0  0  0  0  0  0  0  0
    0.0000    0.8250    0.0000 C   0  0  0  0  0  0  0  0  0  0  0  0
    2.2137    1.9050    0.0000 C   0  0  0  0  0  0  0  0  0  0  0  0
    1.4992    2.3175    0.0000 O   0  0  0  0  0  0  0  0  0  0  0  0
    2.9282    1.4925    0.0000 O   0  0  0  0  0  0  0  0  0  0  0  0
   -0.7144    0.4125    0.0000 C   0  0  0  0  0  0  0  0  0  0  0  0
    1.4290    1.6500    0.0000 C   0  0  0  0  0  0  0  0  0  0  0  0
    2.9282    2.3175    0.0000 C   0  0  0  0  0  0  0  0  0  0  0  0
 15  1  1  0  0  0  0
 15 11  1  0  0  0  0
 15 13  1  0  0  0  0
  1  2  1  0  0  0  0
  2  3  1  0  0  0  0
  3  4  2  0  0  0  0
  3  7  1  0  0  0  0
  4 19  1  0  0  0  0
 19  5  1  0  0  0  0
  5  6  1  0  0  0  0
  6  7  1  0  0  0  0
  7 11  1  0  0  0  0
 11 21  1  0  0  0  0
 21  8  1  0  0  0  0
  8 17  1  0  0  0  0
 17 18  1  0  0  0  0
 17 13  1  0  0  0  0
 18  9  1  0  0  0  0
  9 10  1  0  0  0  0
 10 13  1  0  0  0  0
 11 12  1  6  0  0  0
 13 14  1  6  0  0  0
 15 16  1  1  0  0  0
 18 24  1  6  0  0  0
 18 22  1  0  0  0  0
 19 20  2  0  0  0  0
 22 23  2  0  0  0  0
  7 25  1  1  0  0  0
 17 26  1  1  0  0  0
 22 27  1  0  0  0  0
M  END
> <ID>
CHEBI:17252

> <NAME>
17alpha-hydroxyprogesterone

> <DEFINITION>
A 17α-hydroxy steroid that is the 17α-hydroxy derivative of progesterone.

> <STAR>
3

> <SECONDARY_ID>
CHEBI:11340; CHEBI:790; CHEBI:11339; CHEBI:19173

> <SYNONYM>
Pregn-4-ene-3,20-dione-17-ol; hydroxyprogesterone; delta(4)-Pregnene-17alpha-ol-3,20-dione; 17-alpha-hydroxyprogesterone; 17alpha-Hydroxyprogesterone; 17alpha-Hydroxy-progesterone; 17alpha-Hydroxy-4-pregnene-3,20-dione; 17-hydroxyprogesterone; 17-Hydroxypregn-4-en-3,20-dione

> <IUPAC_NAME>
17-hydroxypregn-4-ene-3,20-dione

> <INN>
hydroxyprogesteronum; hydroxyprogesterone; hidroxiprogesterona

> <FORMULA>
C21H30O3

> <MASS>
330.46110

> <MONOISOTOPIC_MASS>
330.21949

> <CHARGE>
0

> <SMILES>
[H][C@@]12CCC3=CC(=O)CC[C@]3(C)[C@@]1([H])CC[C@@]1(C)[C@@]2([H])CC[C@]1(O)C(C)=O

> <INCHI>
InChI=1S/C21H30O3/c1-13(22)21(24)11-8-18-16-5-4-14-12-15(23)6-9-19(14,2)17(16)7-10-20(18,21)3/h12,16-18,24H,4-11H2,1-3H3/t16-,17+,18+,19+,20+,21+/m1/s1

> <INCHIKEY>
DBPWSSGDRRHUNT-CEGNMAFCSA-N

> <BEILSTEIN_REGISTRY_NUMBER>
2062088

> <CAS_REGISTRY_NUMBER>
68-96-2

> <REAXYS_REGISTRY_NUMBER>
2062088

> <CHEMIDPLUS>
68-96-2

> <KEGG_COMPOUND_ACCESSION>
C01176

> <KEGG_DRUG_ACCESSION>
D08052

> <LIPID_MAPS_INSTANCE_ACCESSION>
LMST02030161

> <METACYC_ACCESSION>
17-ALPHA-HYDROXYPROGESTERONE

> <NIST_CHEMISTRY_WEBBOOK>
68-96-2

> <WIKIPEDIA_ACCESSION>
Hydroxyprogesterone

> <PUBMED_CITATION>
1167988; 12915667; 14999215; 15863951; 17066953; 17096820; 17128559; 18573861; 19390483; 4339047; 4343782; 4628727; 4678211; 4678212; 5061166; 5065810; 5098538; 518278; 5571099; 6632812; 72488; 8496956; 9931518

$$$$

Marvin  02050816202D          

 18 20  0  0  1  0            999 V2000
    0.9372   -0.2267    0.0000 N   0  0  0  0  0  0  0  0  0  0  0  0
    0.9372   -1.0517    0.0000 C   0  0  0  0  0  0  0  0  0  0  0  0
    0.2227   -1.4642    0.0000 N   0  0  0  0  0  0  0  0  0  0  0  0
    0.2226   -2.2892    0.0000 C   0  0  0  0  0  0  0  0  0  0  0  0
    0.9371   -2.7017    0.0000 N   0  0  0  0  0  0  0  0  0  0  0  0
    1.6516   -2.2892    0.0000 C   0  0  0  0  0  0  0  0  0  0  0  0
    1.6516   -1.4642    0.0000 C   0  0  0  0  0  0  0  0  0  0  0  0
    2.4362   -1.2093    0.0000 N   0  0  0  0  0  0  0  0  0  0  0  0
    2.9212   -1.8768    0.0000 C   0  0  0  0  0  0  0  0  0  0  0  0
    2.4362   -2.5442    0.0000 N   0  0  0  0  0  0  0  0  0  0  0  0
    2.6912   -3.3290    0.0000 C   0  0  2  0  0  0  0  0  0  0  0  0
    2.2062   -3.9963    0.0000 O   0  0  0  0  0  0  0  0  0  0  0  0
    2.6911   -4.6639    0.0000 C   0  0  2  0  0  0  0  0  0  0  0  0
    2.4361   -5.4485    0.0000 C   0  0  0  0  0  0  0  0  0  0  0  0
    2.9882   -6.0616    0.0000 O   0  0  0  0  0  0  0  0  0  0  0  0
    3.4757   -4.4089    0.0000 C   0  0  1  0  0  0  0  0  0  0  0  0
    4.1432   -4.8939    0.0000 O   0  0  0  0  0  0  0  0  0  0  0  0
    3.4758   -3.5839    0.0000 C   0  0  0  0  0  0  0  0  0  0  0  0
  1  2  1  0  0  0  0
  2  3  1  0  0  0  0
  2  7  2  0  0  0  0
  3  4  2  0  0  0  0
  4  5  1  0  0  0  0
  5  6  2  0  0  0  0
  6  7  1  0  0  0  0
  6 10  1  0  0  0  0
  7  8  1  0  0  0  0
  8  9  2  0  0  0  0
  9 10  1  0  0  0  0
 11 10  1  1  0  0  0
 11 12  1  0  0  0  0
 11 18  1  0  0  0  0
 12 13  1  0  0  0  0
 13 14  1  1  0  0  0
 13 16  1  0  0  0  0
 14 15  1  0  0  0  0
 16 17  1  6  0  0  0
 16 18  1  0  0  0  0
M  END
> <ID>
CHEBI:17256

> <NAME>
2'-deoxyadenosine

> <DEFINITION>
A purine 2'-deoxyribonucleoside having adenine as the nucleobase.

> <STAR>
3

> <SECONDARY_ID>
CHEBI:39863; CHEBI:40535; CHEBI:19234; CHEBI:40560; CHEBI:40565; CHEBI:4405; CHEBI:14112

> <SYNONYM>
Deoxyadenosine; dA; adenyldeoxyriboside; adenine deoxyribonucleoside; 9-(2-deoxy-beta-D-ribofuranosyl)-9H-purin-6-amine; 9-(2-Deoxy-beta-D-erythro-pentofuranosyl)adenine; 5-(6-AMINO-PURIN-9-YL)-2-HYDROXYMETHYL-TETRAHYDRO-FURAN-3-OL; 2'-deoxyadenosine; 2'-Deoxyadenosine; (2R,3S,5R)-5-(6-amino-9H-purin-9-yl)-2-(hydroxymethyl)tetrahydrofuran-3-ol

> <IUPAC_NAME>
2'-deoxyadenosine

> <FORMULA>
C10H13N5O3

> <MASS>
251.24212

> <MONOISOTOPIC_MASS>
251.10184

> <CHARGE>
0

> <SMILES>
Nc1ncnc2n(cnc12)[C@H]1C[C@H](O)[C@@H](CO)O1

> <INCHI>
InChI=1S/C10H13N5O3/c11-9-8-10(13-3-12-9)15(4-14-8)7-1-5(17)6(2-16)18-7/h3-7,16-17H,1-2H2,(H2,11,12,13)/t5-,6+,7+/m0/s1

> <INCHIKEY>
OLXZPDWKRNYJJZ-RRKCRQDMSA-N

> <BEILSTEIN_REGISTRY_NUMBER>
91015

> <CAS_REGISTRY_NUMBER>
958-09-8

> <GMELIN_REGISTRY_NUMBER>
283189

> <REAXYS_REGISTRY_NUMBER>
91015

> <CHEMIDPLUS>
958-09-8

> <HMDB_ACCESSION>
HMDB0000101

> <KEGG_COMPOUND_ACCESSION>
C00559

> <KNAPSACK_ACCESSION>
C00019281

> <METACYC_ACCESSION>
DEOXYADENOSINE

> <NIST_CHEMISTRY_WEBBOOK>
958-09-8

> <PDBECHEM_ACCESSION>
3D1

> <WIKIPEDIA_ACCESSION>
Deoxyadenosine

> <PUBMED_CITATION>
14253484; 18508186; 24144081; 8171392; 9869364

$$$$

Marvin  06070613472D          

 12 12  0  0  1  0            999 V2000
    0.0000    0.8250    0.0000 C   0  0  1  0  0  0  0  0  0  0  0  0
    0.7145    0.4125    0.0000 C   0  0  2  0  0  0  0  0  0  0  0  0
    0.7145   -0.4125    0.0000 C   0  0  2  0  0  0  0  0  0  0  0  0
    0.0000   -0.8250    0.0000 C   0  0  1  0  0  0  0  0  0  0  0  0
   -0.7145   -0.4125    0.0000 C   0  0  2  0  0  0  0  0  0  0  0  0
   -0.7145    0.4125    0.0000 C   0  0  2  0  0  0  0  0  0  0  0  0
   -1.4289   -0.8250    0.0000 O   0  0  0  0  0  0  0  0  0  0  0  0
   -1.4289    0.8250    0.0000 O   0  0  0  0  0  0  0  0  0  0  0  0
    1.4289    0.8250    0.0000 O   0  0  0  0  0  0  0  0  0  0  0  0
    1.4289   -0.8250    0.0000 O   0  0  0  0  0  0  0  0  0  0  0  0
    0.0000    1.6500    0.0000 O   0  0  0  0  0  0  0  0  0  0  0  0
    0.0000   -1.6500    0.0000 O   0  0  0  0  0  0  0  0  0  0  0  0
  1  2  1  0  0  0  0
  1  6  1  0  0  0  0
  2  3  1  0  0  0  0
  3  4  1  0  0  0  0
  4  5  1  0  0  0  0
  5  6  1  0  0  0  0
  5  7  1  1  0  0  0
  6  8  1  6  0  0  0
  2  9  1  1  0  0  0
  3 10  1  1  0  0  0
  1 11  1  1  0  0  0
  4 12  1  6  0  0  0
M  END
> <ID>
CHEBI:17268

> <NAME>
myo-inositol

> <DEFINITION>
An inositol having myo- configuration.

> <STAR>
3

> <SECONDARY_ID>
CHEBI:43559; CHEBI:10601; CHEBI:12826; CHEBI:12831; CHEBI:25451

> <SYNONYM>
Myoinositol; myo-inositol; myo-Inositol; meso-Inositol; Meat sugar; L-myo-Inositol; Ins; Inositol; inosite; i-inositol; Dambose; D-myo-Inositol; Cyclohexitol; cis-1,2,3,5-trans-4,6-cyclohexanehexol; Bios I; 1L-myo-Inositol; 1D-myo-Inositol; 1,2,3,5/4,6-cyclohexanehexol; 1,2,3,4,5,6-HEXAHYDROXY-CYCLOHEXANE; (1r,2R,3S,4s,5R,6S)-cyclohexane-1,2,3,4,5,6-hexol

> <IUPAC_NAME>
myo-inositol

> <FORMULA>
C6H12O6

> <MASS>
180.15588

> <MONOISOTOPIC_MASS>
180.06339

> <CHARGE>
0

> <SMILES>
O[C@H]1[C@H](O)[C@@H](O)[C@H](O)[C@H](O)[C@@H]1O

> <INCHI>
InChI=1S/C6H12O6/c7-1-2(8)4(10)6(12)5(11)3(1)9/h1-12H/t1-,2-,3-,4+,5-,6-

> <INCHIKEY>
CDAISMWEOUEBRE-GPIVLXJGSA-N

> <BEILSTEIN_REGISTRY_NUMBER>
1907329

> <CAS_REGISTRY_NUMBER>
87-89-8

> <GMELIN_REGISTRY_NUMBER>
82918

> <REAXYS_REGISTRY_NUMBER>
1907329

> <CHEMIDPLUS>
87-89-8

> <DRUGBANK_ACCESSION>
DB03106

> <HMDB_ACCESSION>
HMDB0000211

> <KEGG_COMPOUND_ACCESSION>
C00137

> <KEGG_DRUG_ACCESSION>
D08079

> <KNAPSACK_ACCESSION>
C00001164

> <METACYC_ACCESSION>
MYO-INOSITOL

> <NIST_CHEMISTRY_WEBBOOK>
87-89-8

> <PDBECHEM_ACCESSION>
INS

> <WIKIPEDIA_ACCESSION>
Inositol

> <PUBMED_CITATION>
11034685; 11244303; 11323092; 11772411; 12478879; 12832083; 14583919; 14681857; 15181167; 15295080; 15558078; 16410747; 1694860; 17439666; 17722064; 18650262; 18854045; 19097871; 19383710; 22285975; 22461977; 22517104; 838172

$$$$

Marvin  08220610542D          
 
  6  5  0  0  0  0            999 V2000
   -0.8250   -0.7145    0.0000 Cl  0  0  0  0  0  0  0  0  0  0  0  0
    0.8250   -0.7145    0.0000 Cl  0  0  0  0  0  0  0  0  0  0  0  0
    0.4125    0.0000    0.0000 C   0  0  0  0  0  0  0  0  0  0  0  0
    0.8250    0.7145    0.0000 Cl  0  0  0  0  0  0  0  0  0  0  0  0
   -0.4125    0.0000    0.0000 C   0  0  0  0  0  0  0  0  0  0  0  0
   -0.8250    0.7145    0.0000 Cl  0  0  0  0  0  0  0  0  0  0  0  0
  3  5  2  0  0  0  0
  3  2  1  0  0  0  0
  5  1  1  0  0  0  0
  3  4  1  0  0  0  0
  5  6  1  0  0  0  0
M  END
> <ID>
CHEBI:17300

> <NAME>
tetrachloroethene

> <DEFINITION>
A chlorocarbon that is tetrachloro substituted ethene.

> <STAR>
3

> <SECONDARY_ID>
CHEBI:15216; CHEBI:9471; CHEBI:26890

> <SYNONYM>
tetrachloroethylene; tetrachloroethylene; tetrachloroethene; Tetrachloroethene; tetrachlorethylene; Tetrachloraethen; PERK; perchloroethylene; Perchloroethylene; PERC; PCE; ethylene tetrachloride; 1,1,2,2-tetrachloroethylene

> <IUPAC_NAME>
tetrachloroethene

> <FORMULA>
C2Cl4

> <MASS>
165.83220

> <MONOISOTOPIC_MASS>
163.87541

> <CHARGE>
0

> <SMILES>
ClC(Cl)=C(Cl)Cl

> <INCHI>
InChI=1S/C2Cl4/c3-1(4)2(5)6

> <INCHIKEY>
CYTYCFOTNPOANT-UHFFFAOYSA-N

> <BEILSTEIN_REGISTRY_NUMBER>
1304635

> <CAS_REGISTRY_NUMBER>
127-18-4

> <GMELIN_REGISTRY_NUMBER>
101142

> <REAXYS_REGISTRY_NUMBER>
1304635

> <CHEMIDPLUS>
127-18-4

> <HMDB_ACCESSION>
HMDB0041980

> <KEGG_COMPOUND_ACCESSION>
C06789

> <LINCS_ACCESSION>
LSM-37168

> <METACYC_ACCESSION>
TETRACHLOROETHENE

> <NIST_CHEMISTRY_WEBBOOK>
127-18-4

> <WIKIPEDIA_ACCESSION>
Tetrachloroethene

> <PUBMED_CITATION>
23416178; 23466729; 25042713; 25605280; 25690329

$$$$

Marvin  02230714452D          

 23 24  0  0  1  0            999 V2000
    0.0000    2.4750    0.0000 C   0  0  3  0  0  0  0  0  0  0  0  0
    0.7145    2.0625    0.0000 C   0  0  1  0  0  0  0  0  0  0  0  0
   -0.7145    2.0625    0.0000 O   0  0  0  0  0  0  0  0  0  0  0  0
    0.7145    1.2375    0.0000 C   0  0  2  0  0  0  0  0  0  0  0  0
   -0.7145    1.2375    0.0000 C   0  0  1  0  0  0  0  0  0  0  0  0
    0.0000    0.8250    0.0000 C   0  0  1  0  0  0  0  0  0  0  0  0
    0.0000    3.3000    0.0000 O   0  0  0  0  0  0  0  0  0  0  0  0
    1.4289    2.4750    0.0000 O   0  0  0  0  0  0  0  0  0  0  0  0
    1.4289    0.8250    0.0000 O   0  0  0  0  0  0  0  0  0  0  0  0
    0.0000    0.0000    0.0000 O   0  0  0  0  0  0  0  0  0  0  0  0
   -1.4290    0.8250    0.0000 C   0  0  0  0  0  0  0  0  0  0  0  0
   -2.1434    1.2375    0.0000 O   0  0  0  0  0  0  0  0  0  0  0  0
   -0.7145   -0.4125    0.0000 C   0  0  2  0  0  0  0  0  0  0  0  0
   -0.7145   -1.2375    0.0000 C   0  0  1  0  0  0  0  0  0  0  0  0
   -1.4290    0.0000    0.0000 O   0  0  0  0  0  0  0  0  0  0  0  0
   -1.4290   -1.6500    0.0000 C   0  0  2  0  0  0  0  0  0  0  0  0
   -2.1434   -0.4125    0.0000 C   0  0  1  0  0  0  0  0  0  0  0  0
   -2.1434   -1.2375    0.0000 C   0  0  1  0  0  0  0  0  0  0  0  0
    0.0000   -1.6500    0.0000 O   0  0  0  0  0  0  0  0  0  0  0  0
   -1.4290   -2.4750    0.0000 O   0  0  0  0  0  0  0  0  0  0  0  0
   -2.8579   -1.6500    0.0000 O   0  0  0  0  0  0  0  0  0  0  0  0
   -2.8579    0.0000    0.0000 C   0  0  0  0  0  0  0  0  0  0  0  0
   -3.5724   -0.4125    0.0000 O   0  0  0  0  0  0  0  0  0  0  0  0
  1  2  1  0  0  0  0
  1  3  1  0  0  0  0
  1  7  1  0  0  0  0
  2  4  1  0  0  0  0
  2  8  1  6  0  0  0
  3  5  1  0  0  0  0
  4  6  1  0  0  0  0
  4  9  1  1  0  0  0
  5  6  1  0  0  0  0
  5 11  1  1  0  0  0
  6 10  1  6  0  0  0
 12 11  1  0  0  0  0
 13 14  1  0  0  0  0
 13 15  1  0  0  0  0
 13 10  1  6  0  0  0
 14 16  1  0  0  0  0
 14 19  1  6  0  0  0
 15 17  1  0  0  0  0
 16 18  1  0  0  0  0
 16 20  1  1  0  0  0
 17 18  1  0  0  0  0
 17 22  1  1  0  0  0
 18 21  1  6  0  0  0
 22 23  1  0  0  0  0
M  END
> <ID>
CHEBI:17306

> <NAME>
maltose

> <DEFINITION>
A glycosylglucose consisting of two D-glucopyranose units connected by an α-(1→4)-linkage.

> <STAR>
3

> <SECONDARY_ID>
CHEBI:6668; CHEBI:14568; CHEBI:25144

> <SYNONYM>
Malzzucker; Maltose; maltobiose; Malt sugar; D-maltose; D-maltose; D-(+)-maltose; Cextromaltose; alpha-malt sugar; alpha-D-Glucopyranosyl-(1->4)-D-glucopyranose; alpha-D-Glcp-(1->4)-D-Glcp; 4-O-alpha-D-glucopyranosyl-D-glucose; 4-O-alpha-D-glucopyranosyl-D-glucopyranose; 4-(alpha-D-glucosido)-D-glucose; 4-(alpha-D-glucopyranosido)-alpha-glucopyranose; 1-alpha-D-Glucopyranosyl-4-alpha-D-glucopyranose

> <IUPAC_NAME>
alpha-D-glucopyranosyl-(1->4)-D-glucose; alpha-D-glucopyranosyl-(1->4)-D-glucopyranose

> <FORMULA>
C12H22O11

> <MASS>
342.29648

> <MONOISOTOPIC_MASS>
342.11621

> <CHARGE>
0

> <SMILES>
OC[C@H]1O[C@H](O[C@@H]2[C@@H](CO)OC(O)[C@H](O)[C@H]2O)[C@H](O)[C@@H](O)[C@@H]1O

> <INCHI>
InChI=1S/C12H22O11/c13-1-3-5(15)6(16)9(19)12(22-3)23-10-4(2-14)21-11(20)8(18)7(10)17/h3-20H,1-2H2/t3-,4-,5-,6+,7-,8-,9-,10-,11?,12-/m1/s1

> <INCHIKEY>
GUBGYTABKSRVRQ-PICCSMPSSA-N

> <BEILSTEIN_REGISTRY_NUMBER>
1292747

> <CAS_REGISTRY_NUMBER>
69-79-4

> <REAXYS_REGISTRY_NUMBER>
1292747

> <CHEMIDPLUS>
69-79-4

> <DRUGBANK_ACCESSION>
DB03323

> <KEGG_COMPOUND_ACCESSION>
C00208

> <KEGG_DRUG_ACCESSION>
D00044

> <KEGG_GLYCAN_ACCESSION>
G00275

> <KNAPSACK_ACCESSION>
C00001140

> <NIST_CHEMISTRY_WEBBOOK>
69-79-4

> <WIKIPEDIA_ACCESSION>
Maltose

> <PUBMED_CITATION>
16332759; 17723085; 22094343; 22185612; 22246222; 22252265; 22411612; 22424089; 22451670; 22469630; 22529943; 22573161; 22669197

$$$$

Marvin  10181211162D          

 14 14  0  0  1  0            999 V2000
    7.6480  -11.7710    0.0000 C   0  0  1  0  0  0  0  0  0  0  0  0
    6.9335  -11.3585    0.0000 O   0  0  0  0  0  0  0  0  0  0  0  0
    7.6480  -12.5960    0.0000 C   0  0  1  0  0  0  0  0  0  0  0  0
    6.9335  -13.0085    0.0000 C   0  0  2  0  0  0  0  0  0  0  0  0
    6.2190  -11.7710    0.0000 C   0  0  1  0  0  0  0  0  0  0  0  0
    6.2190  -12.5960    0.0000 C   0  0  2  0  0  0  0  0  0  0  0  0
    8.3624  -13.0085    0.0000 O   0  0  0  0  0  0  0  0  0  0  0  0
    6.9335  -13.8335    0.0000 O   0  0  0  0  0  0  0  0  0  0  0  0
    5.5046  -13.0085    0.0000 O   0  0  0  0  0  0  0  0  0  0  0  0
    5.5046  -11.3585    0.0000 C   0  0  0  0  0  0  0  0  0  0  0  0
    4.7901  -11.7710    0.0000 O   0  0  0  0  0  0  0  0  0  0  0  0
    5.5046  -10.5335    0.0000 O   0  0  0  0  0  0  0  0  0  0  0  0
    4.2250  -12.9865    0.0000 H   0  0  0  0  0  0  0  0  0  0  0  0
    9.2307  -11.7745    0.0000 O   0  0  0  0  0  0  0  0  0  0  0  0
  1  2  1  0  0  0  0
  1  3  1  0  0  0  0
  3  7  1  6  0  0  0
  3  4  1  0  0  0  0
  4  8  1  1  0  0  0
  2  5  1  0  0  0  0
  5 10  1  1  0  0  0
  4  6  1  0  0  0  0
  5  6  1  0  0  0  0
  6  9  1  1  0  0  0
 11 10  1  0  0  0  0
 12 10  2  0  0  0  0
  9 13  1  0  0  0  0
  1 14  1  6  0  0  0
M  STY  1   1 SRU
M  SCN  1   1 HT 
M  SAL   1 12   1   2   3   4   5   6   7   8   9  10  11  12
M  SDI   1  4    4.9706  -13.4119    4.9848  -12.5870
M  SDI   1  4    8.3006  -11.3599    8.2988  -12.1849
M  SBL   1  2  14  13
M  SMT   1 n
M  END
> <ID>
CHEBI:17309

> <NAME>
pectin

> <DEFINITION>
Any mixture of complex, colloidal, macromolecular plant galacturonans containing a large proportion of D-galactopyranosyluronic acid residues in α-(1→4) linkage, the carboxy groups of which may be esterified to varying degrees by methyl groups or be partially or completely converted into salts. The structure shown is that of the parent polygalacturonan.

> <STAR>
3

> <SECONDARY_ID>
CHEBI:14741; CHEBI:7946; CHEBI:26180

> <SYNONYM>
poly[(1->4)-alpha-D-GalpA]; Poly(1,4-alpha-D-galacturonide); Pektine; Pektin; pectins; pectines; pectine; pectinas; pectina; Pectin; pectic substance

> <FORMULA>
H2O(C6H8O6)n

> <CHARGE>
0

> <CAS_REGISTRY_NUMBER>
9000-69-5

> <REAXYS_REGISTRY_NUMBER>
8539058

> <CHEMIDPLUS>
9000-69-5

> <HMDB_ACCESSION>
HMDB0003402

> <KEGG_COMPOUND_ACCESSION>
C00714

> <KEGG_DRUG_ACCESSION>
D02316

> <KEGG_GLYCAN_ACCESSION>
G10591

> <METACYC_ACCESSION>
PECTATE

> <WIKIPEDIA_ACCESSION>
Pectin

> <PUBMED_CITATION>
10093966; 17930085; 24751282; 24798790; 7446458; 7960137; 890983

$$$$

Marvin  03220818252D          

 13 13  0  0  0  0            999 V2000
   -0.7145    0.4125    0.0000 C   0  0  0  0  0  0  0  0  0  0  0  0
   -0.7145   -0.4125    0.0000 C   0  0  0  0  0  0  0  0  0  0  0  0
    0.7145    0.4125    0.0000 C   0  0  0  0  0  0  0  0  0  0  0  0
    0.0000   -0.8250    0.0000 N   0  0  0  0  0  0  0  0  0  0  0  0
    0.7145   -0.4125    0.0000 C   0  0  0  0  0  0  0  0  0  0  0  0
    0.0000    0.8250    0.0000 C   0  0  0  0  0  0  0  0  0  0  0  0
    1.4289    0.8250    0.0000 C   0  0  0  0  0  0  0  0  0  0  0  0
    2.1434    0.4125    0.0000 O   0  0  0  0  0  0  0  0  0  0  0  0
   -1.4289   -0.8250    0.0000 C   0  0  0  0  0  0  0  0  0  0  0  0
   -1.4289    0.8250    0.0000 O   0  0  0  0  0  0  0  0  0  0  0  0
    0.0000    1.6500    0.0000 C   0  0  0  0  0  0  0  0  0  0  0  0
   -0.7145    2.0625    0.0000 O   0  0  0  0  0  0  0  0  0  0  0  0
    0.7145    2.0625    0.0000 H   0  0  0  0  0  0  0  0  0  0  0  0
 10  1  1  0  0  0  0
  2  1  2  0  0  0  0
  9  2  1  0  0  0  0
  7  3  1  0  0  0  0
  2  4  1  0  0  0  0
  3  5  1  0  0  0  0
  5  4  2  0  0  0  0
  1  6  1  0  0  0  0
  6  3  2  0  0  0  0
 11  6  1  0  0  0  0
  8  7  1  0  0  0  0
 13 11  1  0  0  0  0
 11 12  2  0  0  0  0
M  END
> <ID>
CHEBI:17310

> <NAME>
pyridoxal

> <DEFINITION>
A pyridinecarbaldehyde that is pyridine-4-carbaldehyde bearing methyl, hydroxy and hydroxymethyl substituents at positions 2, 3 and 5 respectively. The 4-carboxyaldehyde form of vitamin B6, it is converted into pyridoxal phosphate, a coenzyme for the synthesis of amino acids, neurotransmitters, sphingolipids and aminolevulinic acid.

> <STAR>
3

> <SECONDARY_ID>
CHEBI:14976; CHEBI:45112; CHEBI:8667; CHEBI:26423

> <SYNONYM>
pyridoxaldehyde; pyridoxal; Pyridoxal; 3-HYDROXY-5-(HYDROXYMETHYL)-2-METHYLISONICOTINALDEHYDE

> <IUPAC_NAME>
3-hydroxy-5-(hydroxymethyl)-2-methylpyridine-4-carbaldehyde

> <FORMULA>
C8H9NO3

> <MASS>
167.16200

> <MONOISOTOPIC_MASS>
167.05824

> <CHARGE>
0

> <SMILES>
[H]C(=O)c1c(CO)cnc(C)c1O

> <INCHI>
InChI=1S/C8H9NO3/c1-5-8(12)7(4-11)6(3-10)2-9-5/h2,4,10,12H,3H2,1H3

> <INCHIKEY>
RADKZDMFGJYCBB-UHFFFAOYSA-N

> <BEILSTEIN_REGISTRY_NUMBER>
383768

> <CAS_REGISTRY_NUMBER>
66-72-8

> <GMELIN_REGISTRY_NUMBER>
218674

> <REAXYS_REGISTRY_NUMBER>
383768

> <CHEMIDPLUS>
66-72-8

> <DRUGBANK_ACCESSION>
DB00147

> <HMDB_ACCESSION>
HMDB0001545

> <KEGG_COMPOUND_ACCESSION>
C00250

> <KNAPSACK_ACCESSION>
C00007509

> <METACYC_ACCESSION>
PYRIDOXAL

> <PDBECHEM_ACCESSION>
PXL

> <WIKIPEDIA_ACCESSION>
Pyridoxal

> <PUBMED_CITATION>
17765195; 20381632; 22770225; 23801094; 24365359

$$$$

Ketcher 11211914472D 1   1.00000     0.00000     0

 13 12  0     1  0            999 V2000
   25.3002  -20.1454    0.0000 O   0  0  0  0  0  0  0  0  0  0  0  0
   24.8002  -19.2794    0.0000 C   0  0  0  0  0  0  0  0  0  0  0  0
   25.3002  -18.4133    0.0000 O   0  0  0  0  0  0  0  0  0  0  0  0
   23.8002  -19.2794    0.0000 C   0  0  0  0  0  0  0  0  0  0  0  0
   23.3002  -20.1454    0.0000 N   0  0  0  0  0  0  0  0  0  0  0  0
   23.3002  -18.4133    0.0000 C   0  0  0  0  0  0  0  0  0  0  0  0
   22.3002  -18.4133    0.0000 C   0  0  0  0  0  0  0  0  0  0  0  0
   21.8002  -17.5473    0.0000 C   0  0  0  0  0  0  0  0  0  0  0  0
   20.8002  -17.5473    0.0000 C   0  0  0  0  0  0  0  0  0  0  0  0
   20.3001  -16.6812    0.0000 N   0  0  0  0  0  0  0  0  0  0  0  0
   21.1662  -16.1813    0.0000 C   0  0  0  0  0  0  0  0  0  0  0  0
   19.8002  -15.8153    0.0000 C   0  0  0  0  0  0  0  0  0  0  0  0
   19.4342  -17.1813    0.0000 C   0  0  0  0  0  0  0  0  0  0  0  0
  2  1  1  0     0  0
  3  2  2  0     0  0
  4  2  1  0     0  0
  4  5  1  1     0  0
  6  4  1  0     0  0
  7  6  1  0     0  0
  8  7  1  0     0  0
  9  8  1  0     0  0
 10  9  1  0     0  0
 11 10  1  0     0  0
 12 10  1  0     0  0
 13 10  1  0     0  0
M  CHG  1  10   1
M  END
> <ID>
CHEBI:17311

> <NAME>
N(6),N(6),N(6)-trimethyl-L-lysine

> <DEFINITION>
An α-amino-acid cation that is the N6-trimethyl derivative of L-lysine.

> <STAR>
3

> <SECONDARY_ID>
CHEBI:43974; CHEBI:7402; CHEBI:12672; CHEBI:21853

> <SYNONYM>
trimethyllysine; N(epsilon)-trimethyllysine; N6,N6,N6-Trimethyl-L-lysine; N-TRIMETHYLLYSINE; epsilon-trimethyllysine; epsilon-trimethyl-L-lysine; epsilon-N-trimethyl-L-lysine; (S)-5-amino-5-carboxy-N,N,N-trimethyl-1-pentanaminium; (S)-2-amino-6-(trimethylammonio)hexanoic acid

> <IUPAC_NAME>
N(6),N(6),N(6)-trimethyl-L-lysin-N(6)-ium

> <FORMULA>
C9H21N2O2

> <MASS>
189.278

> <MONOISOTOPIC_MASS>
189.15975

> <CHARGE>
1

> <SMILES>
OC(=O)[C@@H](N)CCCC[N+](C)(C)C

> <INCHI>
InChI=1S/C9H20N2O2/c1-11(2,3)7-5-4-6-8(10)9(12)13/h8H,4-7,10H2,1-3H3/p+1/t8-/m0/s1

> <INCHIKEY>
MXNRLFUSFKVQSK-QMMMGPOBSA-O

> <BEILSTEIN_REGISTRY_NUMBER>
4133409

> <CAS_REGISTRY_NUMBER>
19253-88-4

> <CHEMIDPLUS>
19253-88-4

> <DRUGBANK_ACCESSION>
DB03977

> <KEGG_COMPOUND_ACCESSION>
C03793

> <PDBECHEM_ACCESSION>
M3L

$$$$

Marvin  07210815352D          

 24 26  0  0  1  0            999 V2000
    2.8984    4.8093    0.0000 C   0  0  0  0  0  0  0  0  0  0  0  0
    2.1839    4.3968    0.0000 N   0  0  0  0  0  0  0  0  0  0  0  0
    2.8983    3.1593    0.0000 N   0  0  0  0  0  0  0  0  0  0  0  0
    3.6128    3.5718    0.0000 C   0  0  0  0  0  0  0  0  0  0  0  0
    3.6128    4.3968    0.0000 C   0  0  0  0  0  0  0  0  0  0  0  0
    4.3974    4.6517    0.0000 N   0  0  0  0  0  0  0  0  0  0  0  0
    4.8824    3.9842    0.0000 C   0  0  0  0  0  0  0  0  0  0  0  0
    4.3974    3.3168    0.0000 N   0  0  0  0  0  0  0  0  0  0  0  0
    4.6524    2.5320    0.0000 C   0  0  2  0  0  0  0  0  0  0  0  0
    4.1674    1.8647    0.0000 O   0  0  0  0  0  0  0  0  0  0  0  0
    4.6523    1.1971    0.0000 C   0  0  1  0  0  0  0  0  0  0  0  0
    5.4369    1.4521    0.0000 C   0  0  1  0  0  0  0  0  0  0  0  0
    6.1044    0.9671    0.0000 O   0  0  0  0  0  0  0  0  0  0  0  0
    5.4370    2.2771    0.0000 C   0  0  1  0  0  0  0  0  0  0  0  0
    6.1044    2.7620    0.0000 O   0  0  0  0  0  0  0  0  0  0  0  0
    3.5723    0.4125    0.0000 O   0  0  0  0  0  0  0  0  0  0  0  0
    2.8578   -0.8250    0.0000 O   0  0  0  0  0  0  0  0  0  0  0  0
    2.8578    0.0000    0.0000 P   0  0  3  0  0  0  0  0  0  0  0  0
    2.8578    0.8250    0.0000 O   0  0  0  0  0  0  0  0  0  0  0  0
    2.1434    0.4125    0.0000 O   0  0  0  0  0  0  0  0  0  0  0  0
    4.3973    0.4125    0.0000 C   0  0  0  0  0  0  0  0  0  0  0  0
    2.1838    3.5718    0.0000 C   0  0  0  0  0  0  0  0  0  0  0  0
    1.4693    3.1593    0.0000 N   0  0  0  0  0  0  0  0  0  0  0  0
    2.8984    5.6343    0.0000 O   0  0  0  0  0  0  0  0  0  0  0  0
 24  1  2  0  0  0  0
  1  2  1  0  0  0  0
  1  5  1  0  0  0  0
  2 22  1  0  0  0  0
 22  3  2  0  0  0  0
  3  4  1  0  0  0  0
  4  5  2  0  0  0  0
  4  8  1  0  0  0  0
  5  6  1  0  0  0  0
  6  7  2  0  0  0  0
  7  8  1  0  0  0  0
  9  8  1  1  0  0  0
  9 10  1  0  0  0  0
  9 14  1  0  0  0  0
 10 11  1  0  0  0  0
 11 21  1  1  0  0  0
 11 12  1  0  0  0  0
 12 13  1  6  0  0  0
 12 14  1  0  0  0  0
 14 15  1  6  0  0  0
 16 18  1  0  0  0  0
 18 17  2  0  0  0  0
 18 20  1  0  0  0  0
 18 19  1  0  0  0  0
 21 16  1  0  0  0  0
 22 23  1  0  0  0  0
M  END
> <ID>
CHEBI:17345

> <NAME>
guanosine 5'-monophosphate

> <DEFINITION>
A purine ribonucleoside 5'-monophosphate having guanine as the nucleobase.

> <STAR>
3

> <SECONDARY_ID>
CHEBI:40119; CHEBI:42979; CHEBI:42831; CHEBI:42615; CHEBI:42887; CHEBI:42892; CHEBI:42647; CHEBI:47450; CHEBI:5228; CHEBI:13341; CHEBI:14381; CHEBI:24449; CHEBI:24450; CHEBI:29058

> <SYNONYM>
pG; Guanylic acid; guanosine-5'-monophosphate; Guanosine monophosphate; Guanosine 5'-phosphate; Guanosine 5'-monophosphate; GMP; 5'-GMP

> <IUPAC_NAME>
[(2R,3S,4R,5R)-5-(2-amino-6-oxo-1,6-dihydro-9H-purin-9-yl)-3,4-dihydroxytetrahydrofuran-2-yl]methyl dihydrogen phosphate; 5'-guanylic acid

> <FORMULA>
C10H14N5O8P

> <MASS>
363.22082

> <MONOISOTOPIC_MASS>
363.05800

> <CHARGE>
0

> <SMILES>
Nc1nc2n(cnc2c(=O)[nH]1)[C@@H]1O[C@H](COP(O)(O)=O)[C@@H](O)[C@H]1O

> <INCHI>
InChI=1S/C10H14N5O8P/c11-10-13-7-4(8(18)14-10)12-2-15(7)9-6(17)5(16)3(23-9)1-22-24(19,20)21/h2-3,5-6,9,16-17H,1H2,(H2,19,20,21)(H3,11,13,14,18)/t3-,5-,6-,9-/m1/s1

> <INCHIKEY>
RQFCJASXJCIDSX-UUOKFMHZSA-N

> <CAS_REGISTRY_NUMBER>
85-32-5

> <REAXYS_REGISTRY_NUMBER>
59430

> <CHEMIDPLUS>
85-32-5

> <DRUGBANK_ACCESSION>
DB01972

> <HMDB_ACCESSION>
HMDB0001397

> <KEGG_COMPOUND_ACCESSION>
C00144

> <KNAPSACK_ACCESSION>
C00019635

> <METACYC_ACCESSION>
GMP

> <PDBECHEM_ACCESSION>
5GP

> <WIKIPEDIA_ACCESSION>
Guanosine_monophosphate

> <PUBMED_CITATION>
11233304; 11670950; 22735334; 2559771; 3569407

$$$$

Marvin  11260717232D          

 24 27  0  0  1  0            999 V2000
    0.0000   -0.8250    0.0000 C   0  0  0  0  0  0  0  0  0  0  0  0
   -0.7145   -0.4125    0.0000 C   0  0  0  0  0  0  0  0  0  0  0  0
    0.7145   -0.4125    0.0000 C   0  0  0  0  0  0  0  0  0  0  0  0
   -0.7145    0.4125    0.0000 C   0  0  1  0  0  0  0  0  0  0  0  0
    0.0000    0.8250    0.0000 C   0  0  2  0  0  0  0  0  0  0  0  0
    0.7145    0.4125    0.0000 C   0  0  2  0  0  0  0  0  0  0  0  0
   -1.4290    0.8250    0.0000 C   0  0  0  0  0  0  0  0  0  0  0  0
   -2.1434    0.4125    0.0000 C   0  0  0  0  0  0  0  0  0  0  0  0
   -1.4290   -0.8250    0.0000 C   0  0  0  0  0  0  0  0  0  0  0  0
    0.0000    1.6500    0.0000 C   0  0  0  0  0  0  0  0  0  0  0  0
    0.7145    2.0625    0.0000 C   0  0  0  0  0  0  0  0  0  0  0  0
    2.2135    0.5701    0.0000 C   0  0  0  0  0  0  0  0  0  0  0  0
    2.6985    1.2375    0.0000 C   0  0  0  0  0  0  0  0  0  0  0  0
    0.0000    0.0000    0.0000 H   0  0  0  0  0  0  0  0  0  0  0  0
    0.7144    1.2375    0.0000 H   0  0  0  0  0  0  0  0  0  0  0  0
    1.4289    0.8250    0.0000 C   0  0  2  0  0  0  0  0  0  0  0  0
    1.4289    1.6500    0.0000 C   0  0  2  0  0  0  0  0  0  0  0  0
    1.4289    0.0000    0.0000 H   0  0  0  0  0  0  0  0  0  0  0  0
   -0.7145    1.2375    0.0000 C   0  0  0  0  0  0  0  0  0  0  0  0
    1.4290    2.4750    0.0000 C   0  0  0  0  0  0  0  0  0  0  0  0
    2.2135    1.9049    0.0000 C   0  0  1  0  0  0  0  0  0  0  0  0
    2.4685    2.6895    0.0000 O   0  0  0  0  0  0  0  0  0  0  0  0
   -2.1434   -0.4125    0.0000 C   0  0  0  0  0  0  0  0  0  0  0  0
   -2.8579   -0.8250    0.0000 O   0  0  0  0  0  0  0  0  0  0  0  0
  2  1  1  0  0  0  0
  2  9  2  0  0  0  0
  1  3  1  0  0  0  0
  4  2  1  0  0  0  0
  4  7  1  0  0  0  0
  5  4  1  0  0  0  0
  5 10  1  0  0  0  0
  5 14  1  6  0  0  0
  6  5  1  0  0  0  0
  6  3  1  0  0  0  0
 16  6  1  0  0  0  0
  6 15  1  1  0  0  0
  8  7  1  0  0  0  0
 23  8  1  0  0  0  0
 23  9  1  0  0  0  0
 10 11  1  0  0  0  0
 17 11  1  0  0  0  0
 16 12  1  0  0  0  0
 13 12  1  0  0  0  0
 13 21  1  0  0  0  0
 16 17  1  0  0  0  0
 16 18  1  6  0  0  0
 17 21  1  0  0  0  0
 21 22  1  1  0  0  0
 23 24  2  0  0  0  0
  4 19  1  1  0  0  0
 17 20  1  1  0  0  0
M  END
> <ID>
CHEBI:17347

> <NAME>
testosterone

> <DEFINITION>
An androstanoid having 17β-hydroxy and 3-oxo groups, together with unsaturation at C-4‒C-5..

> <STAR>
3

> <SECONDARY_ID>
CHEBI:45798; CHEBI:9461; CHEBI:15214; CHEBI:26883

> <SYNONYM>
testosterone; TESTOSTERONE; Testosterone; Testosteron; Androderm; 4-androsten-17beta-ol-3-one; 17beta-Hydroxy-4-androsten-3-one; 17beta-hydroxy-4-androsten-3-one

> <IUPAC_NAME>
17beta-hydroxyandrost-4-en-3-one

> <INN>
testosteronum; testosterone; testosterona

> <FORMULA>
C19H28O2

> <MASS>
288.42440

> <MONOISOTOPIC_MASS>
288.20893

> <CHARGE>
0

> <SMILES>
[H][C@@]12CCC3=CC(=O)CC[C@]3(C)[C@@]1([H])CC[C@]1(C)[C@@H](O)CC[C@@]21[H]

> <INCHI>
InChI=1S/C19H28O2/c1-18-9-7-13(20)11-12(18)3-4-14-15-5-6-17(21)19(15,2)10-8-16(14)18/h11,14-17,21H,3-10H2,1-2H3/t14-,15-,16-,17-,18-,19-/m0/s1

> <INCHIKEY>
MUMGGOZAMZWBJJ-DYKIIFRCSA-N

> <BEILSTEIN_REGISTRY_NUMBER>
3653705

> <CAS_REGISTRY_NUMBER>
58-22-0

> <GMELIN_REGISTRY_NUMBER>
538843

> <REAXYS_REGISTRY_NUMBER>
1915399

> <CHEMIDPLUS>
58-22-0

> <DRUGBANK_ACCESSION>
DB00624

> <HMDB_ACCESSION>
HMDB0000234

> <KEGG_COMPOUND_ACCESSION>
C00535

> <KEGG_DRUG_ACCESSION>
D00075

> <KNAPSACK_ACCESSION>
C00003675

> <LIPID_MAPS_INSTANCE_ACCESSION>
LMST02020002

> <NIST_CHEMISTRY_WEBBOOK>
58-22-0

> <PDBECHEM_ACCESSION>
TES

> <WIKIPEDIA_ACCESSION>
Testosterone

> <PUBMED_CITATION>
10438974; 11786693; 18900503; 24498482

$$$$

Marvin  07021317282D          

 10 11  0  0  0  0            999 V2000
   14.1962   -4.5925    0.0000 C   0  0  0  0  0  0  0  0  0  0  0  0
   13.4818   -4.1800    0.0000 C   0  0  0  0  0  0  0  0  0  0  0  0
   13.4818   -3.3550    0.0000 C   0  0  0  0  0  0  0  0  0  0  0  0
   14.1962   -2.9424    0.0000 C   0  0  0  0  0  0  0  0  0  0  0  0
   14.9107   -3.3550    0.0000 C   0  0  0  0  0  0  0  0  0  0  0  0
   15.6253   -2.9424    0.0000 C   0  0  0  0  0  0  0  0  0  0  0  0
   16.3397   -3.3550    0.0000 C   0  0  0  0  0  0  0  0  0  0  0  0
   16.3397   -4.1800    0.0000 C   0  0  0  0  0  0  0  0  0  0  0  0
   15.6253   -4.5925    0.0000 N   0  0  0  0  0  0  0  0  0  0  0  0
   14.9107   -4.1800    0.0000 C   0  0  0  0  0  0  0  0  0  0  0  0
  1  2  1  0  0  0  0
  1 10  2  0  0  0  0
  2  3  2  0  0  0  0
  3  4  1  0  0  0  0
  4  5  2  0  0  0  0
  5  6  1  0  0  0  0
  5 10  1  0  0  0  0
  6  7  2  0  0  0  0
  7  8  1  0  0  0  0
  8  9  2  0  0  0  0
  9 10  1  0  0  0  0
M  END
> <ID>
CHEBI:17362

> <NAME>
quinoline

> <DEFINITION>
The simplest member of the quinoline class of compounds, comprising a benzene ring ortho fused to C-2 and C-3 of a pyridine ring.

> <STAR>
3

> <SECONDARY_ID>
CHEBI:8727; CHEBI:15007

> <SYNONYM>
quinoline; Quinoline; Chinolin; benzo[b]pyridine

> <IUPAC_NAME>
quinoline

> <FORMULA>
C9H7N

> <MASS>
129.15860

> <MONOISOTOPIC_MASS>
129.05785

> <CHARGE>
0

> <SMILES>
c1ccc2ncccc2c1

> <INCHI>
InChI=1S/C9H7N/c1-2-6-9-8(4-1)5-3-7-10-9/h1-7H

> <INCHIKEY>
SMWDFEZZVXVKRB-UHFFFAOYSA-N

> <BEILSTEIN_REGISTRY_NUMBER>
107477

> <CAS_REGISTRY_NUMBER>
91-22-5

> <GMELIN_REGISTRY_NUMBER>
27201

> <REAXYS_REGISTRY_NUMBER>
107477

> <CHEMIDPLUS>
91-22-5

> <HMDB_ACCESSION>
HMDB0033731

> <KEGG_COMPOUND_ACCESSION>
C06413

> <KNAPSACK_ACCESSION>
C00026478

> <METACYC_ACCESSION>
QUINOLINE

> <NIST_CHEMISTRY_WEBBOOK>
91-22-5

> <WIKIPEDIA_ACCESSION>
Quinoline

> <PUBMED_CITATION>
16406213; 8070089

$$$$
ChEBI


 10 11  0  0  0  0  0  0  0  0  1 V2000
    9.5711   -6.4220   -0.0000 C   0  0  0  0  0  0  0  0  0  0  0  0
    9.5711   -7.7520   -0.0000 C   0  0  0  0  0  0  0  0  0  0  0  0
    8.4192   -5.7570   -0.0000 C   0  0  0  0  0  0  0  0  0  0  0  0
    8.4192   -8.4170   -0.0000 N   0  0  0  0  0  0  0  0  0  0  0  0
    7.2674   -6.4220   -0.0000 N   0  0  0  0  0  0  0  0  0  0  0  0
    7.2674   -7.7520   -0.0000 C   0  0  0  0  0  0  0  0  0  0  0  0
   10.8360   -8.1631   -0.0000 N   0  0  0  0  0  0  0  0  0  0  0  0
   11.6177   -7.0871   -0.0000 C   0  0  0  0  0  0  0  0  0  0  0  0
   10.8360   -6.0110   -0.0000 N   0  0  0  0  0  0  0  0  0  0  0  0
    8.4192   -4.4270   -0.0000 O   0  0  0  0  0  0  0  0  0  0  0  0
  1  3  1  0  0  0  0
  2  4  1  0  0  0  0
  3  5  1  0  0  0  0
  4  6  2  0  0  0  0
  5  6  1  0  0  0  0
  8  7  2  0  0  0  0
  2  7  1  0  0  0  0
  9  8  1  0  0  0  0
  1  2  2  0  0  0  0
  1  9  1  0  0  0  0
 10  3  2  0  0  0  0
M  END
> <ID>
CHEBI:17368

> <NAME>
hypoxanthine

> <DEFINITION>
A purine nucleobase that consists of purine bearing an oxo substituent at position 6.

> <STAR>
3

> <SECONDARY_ID>
CHEBI:24762; CHEBI:43237; CHEBI:5841; CHEBI:14431

> <SYNONYM>
Purine-6-ol; purin-6(1H)-one; hypoxanthine; HYPOXANTHINE; Hypoxanthine; Hyp; 9H-purin-6(1H)-one; 6-oxopurine; 6(1H)-purinone

> <IUPAC_NAME>
1,7-dihydro-6H-purin-6-one

> <FORMULA>
C5H4N4O

> <MASS>
136.11162

> <MONOISOTOPIC_MASS>
136.03851

> <CHARGE>
0

> <SMILES>
O=c1[nH]cnc2nc[nH]c12

> <INCHI>
InChI=1S/C5H4N4O/c10-5-3-4(7-1-6-3)8-2-9-5/h1-2H,(H2,6,7,8,9,10)

> <INCHIKEY>
FDGQSTZJBFJUBT-UHFFFAOYSA-N

> <BEILSTEIN_REGISTRY_NUMBER>
5811

> <CAS_REGISTRY_NUMBER>
68-94-0

> <GMELIN_REGISTRY_NUMBER>
464558

> <REAXYS_REGISTRY_NUMBER>
5811

> <CHEMIDPLUS>
68-94-0

> <DRUGBANK_ACCESSION>
DB04076

> <ECMDB_ACCESSION>
ECMDB00157

> <HMDB_ACCESSION>
HMDB0000157

> <KEGG_COMPOUND_ACCESSION>
C00262

> <KNAPSACK_ACCESSION>
C00001502

> <METACYC_ACCESSION>
HYPOXANTHINE

> <NIST_CHEMISTRY_WEBBOOK>
68-94-0

> <PDBECHEM_ACCESSION>
HPA

> <WIKIPEDIA_ACCESSION>
Hypoxanthine

> <YMDB_ACCESSION>
YMDB00555

> <PUBMED_CITATION>
14253484; 1557408; 22735334; 23400363; 23670363; 8016081

$$$$

Marvin  03220818432D          

 13 13  0  0  0  0            999 V2000
   -0.7145    0.4125    0.0000 C   0  0  0  0  0  0  0  0  0  0  0  0
   -0.7145   -0.4125    0.0000 C   0  0  0  0  0  0  0  0  0  0  0  0
    0.7145    0.4125    0.0000 C   0  0  0  0  0  0  0  0  0  0  0  0
    0.0000   -0.8250    0.0000 N   0  0  0  0  0  0  0  0  0  0  0  0
    0.7145   -0.4125    0.0000 C   0  0  0  0  0  0  0  0  0  0  0  0
    0.0000    0.8250    0.0000 C   0  0  0  0  0  0  0  0  0  0  0  0
    1.4289    0.8250    0.0000 C   0  0  0  0  0  0  0  0  0  0  0  0
    2.1434    0.4125    0.0000 O   0  0  0  0  0  0  0  0  0  0  0  0
   -1.4289   -0.8250    0.0000 C   0  0  0  0  0  0  0  0  0  0  0  0
   -1.4289    0.8250    0.0000 O   0  0  0  0  0  0  0  0  0  0  0  0
    0.0000    1.6500    0.0000 C   0  0  0  0  0  0  0  0  0  0  0  0
   -0.7145    2.0625    0.0000 O   0  0  0  0  0  0  0  0  0  0  0  0
    0.7145    2.0625    0.0000 O   0  0  0  0  0  0  0  0  0  0  0  0
 10  1  1  0  0  0  0
  2  1  2  0  0  0  0
  9  2  1  0  0  0  0
  7  3  1  0  0  0  0
  2  4  1  0  0  0  0
  3  5  1  0  0  0  0
  5  4  2  0  0  0  0
  1  6  1  0  0  0  0
  6  3  2  0  0  0  0
 11  6  1  0  0  0  0
  8  7  1  0  0  0  0
 13 11  1  0  0  0  0
 11 12  2  0  0  0  0
M  END
> <ID>
CHEBI:17405

> <NAME>
4-pyridoxic acid

> <DEFINITION>
A methylpyridine that is 2-methylpyridine substituted by a hydroxy group at C-3, a carboxy group at C-4, and a hydroxymethyl group at C-5. It is the catabolic product of vitamin B6 and is excreted in the urine.

> <STAR>
3

> <SECONDARY_ID>
CHEBI:1928; CHEBI:20474

> <SYNONYM>
pyridoxic acid; 4-pyridoxylic acid; 4-pyridoxinic acid; 4-pyridoxinecarboxylic acid; 4-Pyridoxic acid; 4-Pyridoxate; 3-hydroxy-5-(hydroxymethyl)-2-methylisonicotinic acid; 2-methyl-3-hydroxy-4-carboxy-5-hydroxymethylpyridine

> <IUPAC_NAME>
3-hydroxy-5-(hydroxymethyl)-2-methylpyridine-4-carboxylic acid

> <FORMULA>
C8H9NO4

> <MASS>
183.16140

> <MONOISOTOPIC_MASS>
183.05316

> <CHARGE>
0

> <SMILES>
Cc1ncc(CO)c(C(O)=O)c1O

> <INCHI>
InChI=1S/C8H9NO4/c1-4-7(11)6(8(12)13)5(3-10)2-9-4/h2,10-11H,3H2,1H3,(H,12,13)

> <INCHIKEY>
HXACOUQIXZGNBF-UHFFFAOYSA-N

> <BEILSTEIN_REGISTRY_NUMBER>
384006

> <CAS_REGISTRY_NUMBER>
82-82-6

> <REAXYS_REGISTRY_NUMBER>
384006

> <CHEMIDPLUS>
82-82-6

> <HMDB_ACCESSION>
HMDB0000017

> <KEGG_COMPOUND_ACCESSION>
C00847

> <METACYC_ACCESSION>
CPD-1112

> <PUBMED_CITATION>
22770225; 2580028; 8505768

$$$$

Marvin  09160812112D          

 22 25  0  0  1  0            999 V2000
   -0.7145    0.4125    0.0000 N   0  0  0  0  0  0  0  0  0  0  0  0
   -0.7145   -0.4125    0.0000 C   0  0  0  0  0  0  0  0  0  0  0  0
    0.7145    0.4125    0.0000 C   0  0  0  0  0  0  0  0  0  0  0  0
    0.7145   -0.4125    0.0000 C   0  0  0  0  0  0  0  0  0  0  0  0
    0.0000    0.8250    0.0000 C   0  0  0  0  0  0  0  0  0  0  0  0
    0.0000   -0.8250    0.0000 N   0  0  0  0  0  0  0  0  0  0  0  0
    1.7540   -1.4521    0.0000 C   0  0  2  0  0  0  0  0  0  0  0  0
    1.2691   -2.1195    0.0000 O   0  0  0  0  0  0  0  0  0  0  0  0
    1.7540   -2.7869    0.0000 C   0  0  1  0  0  0  0  0  0  0  0  0
    2.5387   -2.5320    0.0000 C   0  0  2  0  0  0  0  0  0  0  0  0
    2.5387   -1.7070    0.0000 C   0  0  1  0  0  0  0  0  0  0  0  0
    3.2061   -1.2221    0.0000 O   0  0  0  0  0  0  0  0  0  0  0  0
    3.1517   -3.0840    0.0000 O   0  0  0  0  0  0  0  0  0  0  0  0
    1.5825   -3.5939    0.0000 C   0  0  0  0  0  0  0  0  0  0  0  0
    2.1956   -4.1459    0.0000 O   0  0  0  0  0  0  0  0  0  0  0  0
    3.7872   -4.0625    0.0000 O   0  0  0  0  0  0  0  0  0  0  0  0
    2.9802   -3.8910    0.0000 P   0  0  3  0  0  0  0  0  0  0  0  0
    3.2352   -4.6756    0.0000 O   0  0  0  0  0  0  0  0  0  0  0  0
    1.4991   -0.6674    0.0000 N   0  0  0  0  0  0  0  0  0  0  0  0
    1.9840    0.0000    0.0000 C   0  0  0  0  0  0  0  0  0  0  0  0
    1.4991    0.6674    0.0000 N   0  0  0  0  0  0  0  0  0  0  0  0
    0.0000    1.6500    0.0000 N   0  0  0  0  0  0  0  0  0  0  0  0
  1  2  2  0  0  0  0
  3 21  1  0  0  0  0
  3  4  1  0  0  0  0
  4 19  1  0  0  0  0
  5  1  1  0  0  0  0
  3  5  2  0  0  0  0
 22  5  1  0  0  0  0
  6  2  1  0  0  0  0
  4  6  2  0  0  0  0
  7 19  1  1  0  0  0
  8  7  1  0  0  0  0
  7 11  1  0  0  0  0
  9  8  1  0  0  0  0
  9 14  1  1  0  0  0
  9 10  1  0  0  0  0
 10 13  1  6  0  0  0
 10 11  1  0  0  0  0
 11 12  1  6  0  0  0
 13 17  1  0  0  0  0
 15 14  1  0  0  0  0
 17 15  1  0  0  0  0
 17 16  2  0  0  0  0
 17 18  1  0  0  0  0
 20 19  1  0  0  0  0
 21 20  2  0  0  0  0
M  END
> <ID>
CHEBI:17489

> <NAME>
3',5'-cyclic AMP

> <DEFINITION>
A 3',5'-cyclic purine nucleotide having having adenine as the nucleobase.

> <STAR>
3

> <SECONDARY_ID>
CHEBI:1325; CHEBI:41588; CHEBI:11673; CHEBI:19827

> <SYNONYM>
Cyclic AMP; Cyclic adenylic acid; cAMP; ADENOSINE-3',5'-CYCLIC-MONOPHOSPHATE; Adenosine 3',5'-phosphate; Adenosine 3',5'-cyclic phosphate; adenosine 3',5'-cyclic monophosphate; 3',5'-Cyclic AMP

> <IUPAC_NAME>
adenosine 3',5'-(hydrogen phosphate)

> <FORMULA>
C10H12N5O6P

> <MASS>
329.20614

> <MONOISOTOPIC_MASS>
329.05252

> <CHARGE>
0

> <SMILES>
Nc1ncnc2n(cnc12)[C@@H]1O[C@@H]2COP(O)(=O)O[C@H]2[C@H]1O

> <INCHI>
InChI=1S/C10H12N5O6P/c11-8-5-9(13-2-12-8)15(3-14-5)10-6(16)7-4(20-10)1-19-22(17,18)21-7/h2-4,6-7,10,16H,1H2,(H,17,18)(H2,11,12,13)/t4-,6-,7-,10-/m1/s1

> <INCHIKEY>
IVOMOUWHDPKRLL-KQYNXXCUSA-N

> <BEILSTEIN_REGISTRY_NUMBER>
52645

> <CAS_REGISTRY_NUMBER>
60-92-4

> <REAXYS_REGISTRY_NUMBER>
52645

> <CHEMIDPLUS>
60-92-4

> <DRUGBANK_ACCESSION>
DB02527

> <HMDB_ACCESSION>
HMDB0000058

> <KEGG_COMPOUND_ACCESSION>
C00575

> <KNAPSACK_ACCESSION>
C00001497

> <METACYC_ACCESSION>
CAMP

> <NIST_CHEMISTRY_WEBBOOK>
60-92-4

> <PDBECHEM_ACCESSION>
CMP

> <WIKIPEDIA_ACCESSION>
Cyclic_AMP

> <PUBMED_CITATION>
16295522; 18372334; 22770225

$$$$
ChEBI
  Marvin  05131117152D          

 13 13  0  0  1  0            999 V2000
   12.3866   -9.1218    0.0000 C   0  0  1  0  0  0  0  0  0  0  0  0
   13.0982   -8.7093    0.0000 O   0  0  0  0  0  0  0  0  0  0  0  0
   12.3866   -9.9468    0.0000 C   0  0  1  0  0  0  0  0  0  0  0  0
   11.6827   -8.7093    0.0000 C   0  0  0  0  0  0  0  0  0  0  0  0
   13.8171   -9.1218    0.0000 C   0  0  2  0  0  0  0  0  0  0  0  0
   13.0982  -10.3556    0.0000 C   0  0  1  0  0  0  0  0  0  0  0  0
   11.6827  -10.3556    0.0000 O   0  0  0  0  0  0  0  0  0  0  0  0
   13.8171   -9.9468    0.0000 C   0  0  1  0  0  0  0  0  0  0  0  0
   14.5325   -8.7093    0.0000 O   0  0  0  0  0  0  0  0  0  0  0  0
   13.0982  -11.1806    0.0000 O   0  0  0  0  0  0  0  0  0  0  0  0
   14.5325  -10.3556    0.0000 O   0  0  0  0  0  0  0  0  0  0  0  0
   15.2439   -9.1218    0.0000 C   0  0  0  0  0  0  0  0  0  0  0  0
   10.9656   -9.1172    0.0000 O   0  0  0  0  0  0  0  0  0  0  0  0
  1  2  1  0  0  0  0
  1  3  1  0  0  0  0
  1  4  1  1  0  0  0
  2  5  1  0  0  0  0
  3  6  1  0  0  0  0
  3  7  1  1  0  0  0
  5  8  1  0  0  0  0
  5  9  1  1  0  0  0
  6 10  1  1  0  0  0
  8 11  1  6  0  0  0
  9 12  1  0  0  0  0
  6  8  1  0  0  0  0
  4 13  1  0  0  0  0
M  END
> <ID>
CHEBI:17540

> <NAME>
methyl beta-D-galactoside

> <DEFINITION>
A β-D-galactopyranoside having a methyl substituent at the anomeric position.

> <STAR>
3

> <SECONDARY_ID>
CHEBI:43859; CHEBI:14593; CHEBI:25246; CHEBI:6855

> <SYNONYM>
Methylgalactoside; Methyl galactoside; Methyl beta-galactoside; methyl beta-D-galactoside; Methyl beta-D-galactoside; Methyl beta-D-galactopyranoside; GalbetaOMe; beta-D-Galactopyranose methyl glycoside

> <IUPAC_NAME>
methyl beta-D-galactopyranoside

> <FORMULA>
C7H14O6

> <MASS>
194.18250

> <MONOISOTOPIC_MASS>
194.07904

> <CHARGE>
0

> <SMILES>
CO[C@@H]1O[C@H](CO)[C@H](O)[C@H](O)[C@H]1O

> <INCHI>
InChI=1S/C7H14O6/c1-12-7-6(11)5(10)4(9)3(2-8)13-7/h3-11H,2H2,1H3/t3-,4+,5+,6-,7-/m1/s1

> <INCHIKEY>
HOVAGTYPODGVJG-VOQCIKJUSA-N

> <CAS_REGISTRY_NUMBER>
1824-94-8

> <REAXYS_REGISTRY_NUMBER>
81569

> <CHEMIDPLUS>
1824-94-8

> <KEGG_COMPOUND_ACCESSION>
C03619

> <NIST_CHEMISTRY_WEBBOOK>
1824-94-8

> <PDBECHEM_ACCESSION>
MBG

> <PUBMED_CITATION>
12392740; 14499848; 17340011; 18701091; 19913595; 2454629; 2546596; 6465901; 6865949; 7296561; 7407126; 7524207; 773938; 7763824

$$$$

Marvin  10020611092D          

  8  8  0  0  0  0            999 V2000
    0.0000   -0.8250    0.0000 C   0  0  0  0  0  0  0  0  0  0  0  0
    0.7145   -0.4125    0.0000 C   0  0  0  0  0  0  0  0  0  0  0  0
   -0.7145   -0.4125    0.0000 C   0  0  0  0  0  0  0  0  0  0  0  0
    0.0000   -1.6500    0.0000 O   0  0  0  0  0  0  0  0  0  0  0  0
    0.7145    0.4125    0.0000 C   0  0  0  0  0  0  0  0  0  0  0  0
   -0.7145    0.4125    0.0000 C   0  0  0  0  0  0  0  0  0  0  0  0
    0.0000    0.8250    0.0000 C   0  0  0  0  0  0  0  0  0  0  0  0
    0.0000    1.6500    0.0000 O   0  0  0  0  0  0  0  0  0  0  0  0
  1  2  2  0  0  0  0
  1  3  1  0  0  0  0
  1  4  1  0  0  0  0
  2  5  1  0  0  0  0
  3  6  2  0  0  0  0
  5  7  2  0  0  0  0
  7  8  1  0  0  0  0
  6  7  1  0  0  0  0
M  END
> <ID>
CHEBI:17594

> <NAME>
hydroquinone

> <DEFINITION>
A benzenediol comprising benzene core carrying two hydroxy substituents para to each other.

> <STAR>
3

> <SECONDARY_ID>
CHEBI:5793; CHEBI:14416; CHEBI:24645

> <SYNONYM>
Quinol; p-hydroxyphenol; p-Hydroquinone; p-Benzenediol; hydroquinone; Hydroquinone; Eldoquin; Benzene-1,4-diol; 4-Hydroxyphenol; 1,4-Dihydroxybenzene; 1,4-Benzenediol

> <IUPAC_NAME>
benzene-1,4-diol

> <FORMULA>
C6H6O2

> <MASS>
110.11064

> <MONOISOTOPIC_MASS>
110.03678

> <CHARGE>
0

> <SMILES>
Oc1ccc(O)cc1

> <INCHI>
InChI=1S/C6H6O2/c7-5-1-2-6(8)4-3-5/h1-4,7-8H

> <INCHIKEY>
QIGBRXMKCJKVMJ-UHFFFAOYSA-N

> <BEILSTEIN_REGISTRY_NUMBER>
605970

> <CAS_REGISTRY_NUMBER>
123-31-9

> <GMELIN_REGISTRY_NUMBER>
2742

> <REAXYS_REGISTRY_NUMBER>
605970

> <CHEMIDPLUS>
123-31-9

> <HMDB_ACCESSION>
HMDB0002434

> <KEGG_COMPOUND_ACCESSION>
C00530

> <KEGG_DRUG_ACCESSION>
D00073

> <KNAPSACK_ACCESSION>
C00002656

> <METACYC_ACCESSION>
HYDROQUINONE

> <NIST_CHEMISTRY_WEBBOOK>
123-31-9

> <WIKIPEDIA_ACCESSION>
Hydroquinone

> <PUBMED_CITATION>
11170505; 12213471; 1395635; 15618234; 15894107; 1899343; 19148301; 24407054; 24858384; 25586344

$$$$

Ketcher 09011511542D 1   1.00000     0.00000     0

 31 33  0     1  0            999 V2000
    0.8661    0.5000    0.0000 C   0  0  0  0  0  0  0  0  0  0  0  0
    0.8661   -0.5000    0.0000 C   0  0  0  0  0  0  0  0  0  0  0  0
    0.0000    1.0000    0.0000 N   0  0  0  0  0  0  0  0  0  0  0  0
    0.0000   -1.0000    0.0000 N   0  0  0  0  0  0  0  0  0  0  0  0
   -0.8661    0.5000    0.0000 C   0  0  0  0  0  0  0  0  0  0  0  0
   -0.8661   -0.5000    0.0000 C   0  0  0  0  0  0  0  0  0  0  0  0
    1.7321    1.0000    0.0000 N   0  0  0  0  0  0  0  0  0  0  0  0
    2.5982   -0.5000    0.0000 N   0  0  0  0  0  0  0  0  0  0  0  0
    1.7321   -1.0000    0.0000 C   0  0  0  0  0  0  0  0  0  0  0  0
    2.5982    0.5000    0.0000 C   0  0  0  0  0  0  0  0  0  0  0  0
   -1.7320    1.0000    0.0000 C   0  0  0  0  0  0  0  0  0  0  0  0
   -1.7320   -1.0000    0.0000 C   0  0  0  0  0  0  0  0  0  0  0  0
   -2.5981    0.5000    0.0000 C   0  0  0  0  0  0  0  0  0  0  0  0
   -2.5981   -0.5000    0.0000 C   0  0  0  0  0  0  0  0  0  0  0  0
    1.7321   -2.0000    0.0000 O   0  0  0  0  0  0  0  0  0  0  0  0
    3.4641    1.0000    0.0000 O   0  0  0  0  0  0  0  0  0  0  0  0
   -3.4640    1.0000    0.0000 C   0  0  0  0  0  0  0  0  0  0  0  0
   -3.4640   -1.0000    0.0000 C   0  0  0  0  0  0  0  0  0  0  0  0
    1.7321    4.0000    0.0000 C   0  0  0  0  0  0  0  0  0  0  0  0
    0.8661    3.5000    0.0000 C   0  0  0  0  0  0  0  0  0  0  0  0
    0.8661    2.5000    0.0000 C   0  0  0  0  0  0  0  0  0  0  0  0
    0.0001    2.0000    0.0000 C   0  0  0  0  0  0  0  0  0  0  0  0
    2.5982    3.5000    0.0000 O   0  0  0  0  0  0  0  0  0  0  0  0
    0.0001    4.0000    0.0000 O   0  0  0  0  0  0  0  0  0  0  0  0
    1.7321    2.0000    0.0000 O   0  0  0  0  0  0  0  0  0  0  0  0
    1.7321    5.0000    0.0000 C   0  0  0  0  0  0  0  0  0  0  0  0
    2.5982    5.5000    0.0000 O   0  0  0  0  0  0  0  0  0  0  0  0
    1.7321    7.0000    0.0000 O   0  0  0  0  0  0  0  0  0  0  0  0
    3.4641    7.0000    0.0000 O   0  0  0  0  0  0  0  0  0  0  0  0
    2.5982    6.5000    0.0000 P   0  0  0  0  0  0  0  0  0  0  0  0
    3.4642    6.0000    0.0000 O   0  0  0  0  0  0  0  0  0  0  0  0
  7  1  2  0     0  0
  2  1  1  0     0  0
  9  2  1  0     0  0
  3  1  1  0     0  0
 22  3  1  0     0  0
  4  2  2  0     0  0
  5  3  1  0     0  0
 11  5  2  0     0  0
  6  4  1  0     0  0
  6  5  1  0     0  0
 12  6  2  0     0  0
 10  7  1  0     0  0
 10  8  1  0     0  0
  9  8  1  0     0  0
 15  9  2  0     0  0
 16 10  2  0     0  0
 13 11  1  0     0  0
 14 12  1  0     0  0
 14 13  2  0     0  0
 17 13  1  0     0  0
 18 14  1  0     0  0
 19 26  1  0     0  0
 20 19  1  0     0  0
 19 23  1  1     0  0
 21 20  1  0     0  0
 20 24  1  6     0  0
 22 21  1  0     0  0
 21 25  1  1     0  0
 26 27  1  0     0  0
 27 30  1  0     0  0
 30 28  2  0     0  0
 30 29  1  0     0  0
 30 31  1  0     0  0
M  END
> <ID>
CHEBI:17621

> <NAME>
FMN

> <DEFINITION>
A flavin mononucleotide that is riboflavin (vitamin B2) in which the primary hydroxy group has been converted to its dihydrogen phosphate ester.

> <STAR>
3

> <SECONDARY_ID>
CHEBI:42587; CHEBI:4960; CHEBI:13317; CHEBI:21127

> <SYNONYM>
riboflavine dihydrogen phosphate; Riboflavin-5-phosphate; riboflavin monophosphate; riboflavin 5'-phosphate; riboflavin 5'-monophosphate; riboflavin 5'-(dihydrogen phosphate); FMN; FLAVIN MONONUCLEOTIDE; Flavin mononucleotide

> <IUPAC_NAME>
1-deoxy-1-(7,8-dimethyl-2,4-dioxo-3,4-dihydrobenzo[g]pteridin-10(2H)-yl)-5-O-phosphono-D-ribitol

> <FORMULA>
C17H21N4O9P

> <MASS>
456.344

> <MONOISOTOPIC_MASS>
456.10462

> <CHARGE>
0

> <SMILES>
C12=NC(NC(C1=NC=3C(N2C[C@@H]([C@@H]([C@@H](COP(=O)(O)O)O)O)O)=CC(=C(C3)C)C)=O)=O

> <INCHI>
InChI=1S/C17H21N4O9P/c1-7-3-9-10(4-8(7)2)21(15-13(18-9)16(25)20-17(26)19-15)5-11(22)14(24)12(23)6-30-31(27,28)29/h3-4,11-12,14,22-24H,5-6H2,1-2H3,(H,20,25,26)(H2,27,28,29)/t11-,12+,14-/m0/s1

> <INCHIKEY>
FVTCRASFADXXNN-SCRDCRAPSA-N

> <BEILSTEIN_REGISTRY_NUMBER>
68086

> <CAS_REGISTRY_NUMBER>
146-17-8

> <GMELIN_REGISTRY_NUMBER>
477717

> <REAXYS_REGISTRY_NUMBER>
68086

> <CHEMIDPLUS>
146-17-8

> <DRUGBANK_ACCESSION>
DB03247

> <HMDB_ACCESSION>
HMDB0001520

> <KEGG_COMPOUND_ACCESSION>
C00061

> <KNAPSACK_ACCESSION>
C00019686

> <PDBECHEM_ACCESSION>
FMN

> <WIKIPEDIA_ACCESSION>
Flavin_mononucleotide

> <PUBMED_CITATION>
13973054; 23500531; 23570607; 24643482; 25108762

$$$$
ChEBI
  Marvin  04211112252D          

 45 48  0  0  1  0            999 V2000
   14.6869   -6.6230    0.0000 C   0  0  2  0  0  0  0  0  0  0  0  0
   14.6869   -7.4480    0.0000 C   0  0  2  0  0  0  0  0  0  0  0  0
   13.9723   -6.2105    0.0000 O   0  0  0  0  0  0  0  0  0  0  0  0
   13.9723   -7.8605    0.0000 C   0  0  2  0  0  0  0  0  0  0  0  0
   13.2579   -6.6230    0.0000 C   0  0  1  0  0  0  0  0  0  0  0  0
   13.2579   -7.4480    0.0000 C   0  0  1  0  0  0  0  0  0  0  0  0
   15.4013   -6.2105    0.0000 O   0  0  0  0  0  0  0  0  0  0  0  0
   15.4013   -7.8605    0.0000 O   0  0  0  0  0  0  0  0  0  0  0  0
   13.9723   -8.6855    0.0000 O   0  0  0  0  0  0  0  0  0  0  0  0
   12.5434   -7.8605    0.0000 O   0  0  0  0  0  0  0  0  0  0  0  0
   12.5434   -6.2105    0.0000 C   0  0  0  0  0  0  0  0  0  0  0  0
   11.8289   -6.6230    0.0000 O   0  0  0  0  0  0  0  0  0  0  0  0
   16.1158   -4.1480    0.0000 C   0  0  2  0  0  0  0  0  0  0  0  0
   16.1158   -4.9730    0.0000 C   0  0  2  0  0  0  0  0  0  0  0  0
   15.4013   -3.7355    0.0000 O   0  0  0  0  0  0  0  0  0  0  0  0
   15.4013   -5.3855    0.0000 C   0  0  2  0  0  0  0  0  0  0  0  0
   14.6869   -4.1480    0.0000 C   0  0  1  0  0  0  0  0  0  0  0  0
   14.6869   -4.9730    0.0000 C   0  0  1  0  0  0  0  0  0  0  0  0
   16.8303   -3.7355    0.0000 O   0  0  0  0  0  0  0  0  0  0  0  0
   16.8303   -5.3855    0.0000 O   0  0  0  0  0  0  0  0  0  0  0  0
   13.9724   -5.3855    0.0000 O   0  0  0  0  0  0  0  0  0  0  0  0
   13.9724   -3.7355    0.0000 C   0  0  0  0  0  0  0  0  0  0  0  0
   13.2579   -4.1480    0.0000 O   0  0  0  0  0  0  0  0  0  0  0  0
   17.5448   -2.4980    0.0000 C   0  0  2  0  0  0  0  0  0  0  0  0
   16.8303   -2.9105    0.0000 C   0  0  2  0  0  0  0  0  0  0  0  0
   17.5448   -1.6729    0.0000 O   0  0  0  0  0  0  0  0  0  0  0  0
   16.1158   -2.4979    0.0000 C   0  0  2  0  0  0  0  0  0  0  0  0
   16.8304   -1.2604    0.0000 C   0  0  1  0  0  0  0  0  0  0  0  0
   16.1159   -1.6729    0.0000 C   0  0  1  0  0  0  0  0  0  0  0  0
   18.2593   -2.9105    0.0000 O   0  0  0  0  0  0  0  0  0  0  0  0
   15.4014   -2.9104    0.0000 O   0  0  0  0  0  0  0  0  0  0  0  0
   15.4014   -1.2604    0.0000 O   0  0  0  0  0  0  0  0  0  0  0  0
   16.8304   -0.4354    0.0000 C   0  0  0  0  0  0  0  0  0  0  0  0
   16.1159   -0.0229    0.0000 O   0  0  0  0  0  0  0  0  0  0  0  0
   19.6882   -2.9106    0.0000 C   0  0  0  0  0  0  0  0  0  0  0  0
   18.9738   -2.4981    0.0000 C   0  0  2  0  0  0  0  0  0  0  0  0
   20.4027   -2.4981    0.0000 O   0  0  0  0  0  0  0  0  0  0  0  0
   18.9738   -1.6731    0.0000 C   0  0  2  0  0  0  0  0  0  0  0  0
   20.4027   -1.6731    0.0000 C   0  0  1  0  0  0  0  0  0  0  0  0
   19.6883   -1.2606    0.0000 C   0  0  1  0  0  0  0  0  0  0  0  0
   19.6882   -3.7356    0.0000 O   0  0  0  0  0  0  0  0  0  0  0  0
   18.2594   -1.2605    0.0000 O   0  0  0  0  0  0  0  0  0  0  0  0
   19.6883   -0.4356    0.0000 O   0  0  0  0  0  0  0  0  0  0  0  0
   21.1172   -1.2606    0.0000 C   0  0  0  0  0  0  0  0  0  0  0  0
   21.1172   -0.4356    0.0000 O   0  0  0  0  0  0  0  0  0  0  0  0
  1  2  1  0  0  0  0
  1  3  1  0  0  0  0
  2  4  1  0  0  0  0
  3  5  1  0  0  0  0
  4  6  1  0  0  0  0
  5  6  1  0  0  0  0
  1  7  1  6  0  0  0
  2  8  1  1  0  0  0
  4  9  1  1  0  0  0
  6 10  1  6  0  0  0
  5 11  1  1  0  0  0
 12 11  1  0  0  0  0
 13 14  1  0  0  0  0
 13 15  1  0  0  0  0
 14 16  1  0  0  0  0
 15 17  1  0  0  0  0
 16 18  1  0  0  0  0
 17 18  1  0  0  0  0
 13 19  1  6  0  0  0
 14 20  1  1  0  0  0
 16  7  1  1  0  0  0
 18 21  1  6  0  0  0
 17 22  1  1  0  0  0
 23 22  1  0  0  0  0
 24 25  1  0  0  0  0
 24 26  1  0  0  0  0
 25 27  1  0  0  0  0
 26 28  1  0  0  0  0
 27 29  1  0  0  0  0
 28 29  1  0  0  0  0
 24 30  1  6  0  0  0
 25 19  1  1  0  0  0
 27 31  1  1  0  0  0
 29 32  1  6  0  0  0
 28 33  1  1  0  0  0
 34 33  1  0  0  0  0
 35 36  1  0  0  0  0
 35 37  1  0  0  0  0
 36 38  1  0  0  0  0
 37 39  1  0  0  0  0
 38 40  1  0  0  0  0
 39 40  1  0  0  0  0
 35 41  1  0  0  0  0
 36 30  1  1  0  0  0
 38 42  1  1  0  0  0
 40 43  1  6  0  0  0
 39 44  1  1  0  0  0
 45 44  1  0  0  0  0
M  END
> <ID>
CHEBI:17631

> <NAME>
alpha-D-Manp-(1->3)-alpha-D-Manp-(1->2)-alpha-D-Manp-(1->2)-D-Manp

> <DEFINITION>
A linear tetrasaccharide composed of four D-mannose units, joined by α-linkages.

> <STAR>
3

> <SECONDARY_ID>
CHEBI:18911; CHEBI:525; CHEBI:11164; CHEBI:61299

> <SYNONYM>
Manalpha1->3Manalpha1->2Manalpha1->2Man; alpha-D-mannosyl-(1->3)-alpha-D-mannosyl-(1->2)-alpha-D-mannosyl-(1->2)-D-mannose; alpha-D-Man-(1->3)-alpha-D-Man-(1->2)-alpha-D-Man-(1->2)-D-Man; alpha-D-Man-(1->3)-alpha-D-Man-(1->2)-alpha-D-Man-(1->2)-D-Man; 1,3-alpha-D-Mannosyl-1,2-alpha-D-mannosyl-1,2-alpha-D-mannosyl-D-mannose; 1,3-alpha-D-Mannosyl-1,2-alpha-D-mannosyl-1,2-alpha-D-mannosyl-D-mannose; (Man)4

> <IUPAC_NAME>
alpha-D-mannopyranosyl-(1->3)-alpha-D-mannopyranosyl-(1->2)-alpha-D-mannopyranosyl-(1->2)-D-mannopyranose

> <FORMULA>
C24H42O21

> <MASS>
666.57770

> <MONOISOTOPIC_MASS>
666.22186

> <CHARGE>
0

> <SMILES>
OC[C@H]1OC(O)[C@@H](O[C@H]2O[C@H](CO)[C@@H](O)[C@H](O)[C@@H]2O[C@H]2O[C@H](CO)[C@@H](O)[C@H](O[C@H]3O[C@H](CO)[C@@H](O)[C@H](O)[C@@H]3O)[C@@H]2O)[C@@H](O)[C@@H]1O

> <INCHI>
InChI=1S/C24H42O21/c25-1-5-10(30)14(34)19(21(38)39-5)44-24-20(15(35)11(31)7(3-27)42-24)45-23-17(37)18(12(32)8(4-28)41-23)43-22-16(36)13(33)9(29)6(2-26)40-22/h5-38H,1-4H2/t5-,6-,7-,8-,9-,10-,11-,12-,13+,14+,15+,16+,17+,18+,19+,20+,21?,22-,23-,24-/m1/s1

> <INCHIKEY>
NXPDEZAEUSDDQF-SHOVVSDRSA-N

> <REAXYS_REGISTRY_NUMBER>
7845374

> <KEGG_COMPOUND_ACCESSION>
C04861

> <KEGG_GLYCAN_ACCESSION>
G00172

> <PUBMED_CITATION>
18047546; 8898075

$$$$

Marvin  11260714562D          

 16 16  0  0  1  0            999 V2000
    0.7145   -0.4125    0.0000 C   0  0  1  0  0  0  0  0  0  0  0  0
    0.7145    0.4125    0.0000 C   0  0  2  0  0  0  0  0  0  0  0  0
    0.0000    0.8250    0.0000 O   0  0  0  0  0  0  0  0  0  0  0  0
    0.0000   -0.8250    0.0000 C   0  0  2  0  0  0  0  0  0  0  0  0
   -0.7145    0.4125    0.0000 C   0  0  1  0  0  0  0  0  0  0  0  0
   -0.7145   -0.4125    0.0000 C   0  0  1  0  0  0  0  0  0  0  0  0
    1.4289    0.8250    0.0000 O   0  0  0  0  0  0  0  0  0  0  0  0
    1.4289   -0.8250    0.0000 O   0  0  0  0  0  0  0  0  0  0  0  0
    0.0000   -1.6500    0.0000 O   0  0  0  0  0  0  0  0  0  0  0  0
   -1.4289   -0.8250    0.0000 O   0  0  0  0  0  0  0  0  0  0  0  0
   -1.4289    0.8250    0.0000 C   0  0  0  0  0  0  0  0  0  0  0  0
   -2.1434    0.4125    0.0000 O   0  0  0  0  0  0  0  0  0  0  0  0
   -2.8579    1.6500    0.0000 O   0  0  0  0  0  0  0  0  0  0  0  0
   -3.5724    0.4125    0.0000 O   0  0  0  0  0  0  0  0  0  0  0  0
   -2.8579    0.8250    0.0000 P   0  0  3  0  0  0  0  0  0  0  0  0
   -2.8579    0.0000    0.0000 O   0  0  0  0  0  0  0  0  0  0  0  0
  1  8  1  6  0  0  0
  2  1  1  0  0  0  0
  2  7  1  6  0  0  0
  2  3  1  0  0  0  0
  1  4  1  0  0  0  0
  4  9  1  1  0  0  0
  3  5  1  0  0  0  0
  5 11  1  1  0  0  0
  4  6  1  0  0  0  0
  5  6  1  0  0  0  0
  6 10  1  6  0  0  0
 12 11  1  0  0  0  0
 12 15  1  0  0  0  0
 13 15  2  0  0  0  0
 14 15  1  0  0  0  0
 15 16  1  0  0  0  0
M  END
> <ID>
CHEBI:17665

> <NAME>
alpha-D-glucose 6-phosphate

> <DEFINITION>
A D-glucopyranose 6-phosphate where α-D-glucose is the sugar component.

> <STAR>
3

> <SECONDARY_ID>
CHEBI:10245; CHEBI:42748; CHEBI:12321; CHEBI:22389

> <SYNONYM>
ALPHA-D-GLUCOSE-6-PHOSPHATE; alpha-D-Glucose 6-phosphate; 6-O-phosphono-alpha-D-glucopyranose

> <IUPAC_NAME>
alpha-D-glucopyranose 6-(dihydrogen phosphate)

> <FORMULA>
C6H13O9P

> <MASS>
260.13578

> <MONOISOTOPIC_MASS>
260.02972

> <CHARGE>
0

> <SMILES>
O[C@H]1O[C@H](COP(O)(O)=O)[C@@H](O)[C@H](O)[C@H]1O

> <INCHI>
InChI=1S/C6H13O9P/c7-3-2(1-14-16(11,12)13)15-6(10)5(9)4(3)8/h2-10H,1H2,(H2,11,12,13)/t2-,3-,4+,5-,6+/m1/s1

> <INCHIKEY>
NBSCHQHZLSJFNQ-DVKNGEFBSA-N

> <BEILSTEIN_REGISTRY_NUMBER>
1914852

> <DRUGBANK_ACCESSION>
DB02007

> <KEGG_COMPOUND_ACCESSION>
C00668

> <PDBECHEM_ACCESSION>
G6P

$$$$

Marvin  01050823512D          

 23 24  0  0  1  0            999 V2000
    0.0000    2.4750    0.0000 C   0  0  3  0  0  0  0  0  0  0  0  0
    0.7145    2.0625    0.0000 C   0  0  1  0  0  0  0  0  0  0  0  0
   -0.7145    2.0625    0.0000 O   0  0  0  0  0  0  0  0  0  0  0  0
    0.7145    1.2375    0.0000 C   0  0  2  0  0  0  0  0  0  0  0  0
   -0.7145    1.2375    0.0000 C   0  0  1  0  0  0  0  0  0  0  0  0
    0.0000    0.8250    0.0000 C   0  0  1  0  0  0  0  0  0  0  0  0
    0.0000    3.3000    0.0000 O   0  0  0  0  0  0  0  0  0  0  0  0
    1.4289    2.4750    0.0000 O   0  0  0  0  0  0  0  0  0  0  0  0
    1.4289    0.8250    0.0000 O   0  0  0  0  0  0  0  0  0  0  0  0
    0.0000    0.0000    0.0000 O   0  0  0  0  0  0  0  0  0  0  0  0
   -1.4290    0.8250    0.0000 C   0  0  0  0  0  0  0  0  0  0  0  0
   -2.1434    1.2375    0.0000 O   0  0  0  0  0  0  0  0  0  0  0  0
   -0.7145   -0.4125    0.0000 C   0  0  1  0  0  0  0  0  0  0  0  0
   -0.7145   -1.2375    0.0000 C   0  0  1  0  0  0  0  0  0  0  0  0
   -1.4290    0.0000    0.0000 O   0  0  0  0  0  0  0  0  0  0  0  0
   -1.4290   -1.6500    0.0000 C   0  0  2  0  0  0  0  0  0  0  0  0
   -2.1434   -0.4125    0.0000 C   0  0  1  0  0  0  0  0  0  0  0  0
   -2.1434   -1.2375    0.0000 C   0  0  2  0  0  0  0  0  0  0  0  0
    0.0000   -1.6500    0.0000 O   0  0  0  0  0  0  0  0  0  0  0  0
   -1.4290   -2.4750    0.0000 O   0  0  0  0  0  0  0  0  0  0  0  0
   -2.8579   -1.6500    0.0000 O   0  0  0  0  0  0  0  0  0  0  0  0
   -2.8579    0.0000    0.0000 C   0  0  0  0  0  0  0  0  0  0  0  0
   -3.5724   -0.4125    0.0000 O   0  0  0  0  0  0  0  0  0  0  0  0
  1  2  1  0  0  0  0
  1  3  1  0  0  0  0
  1  7  1  0  0  0  0
  2  4  1  0  0  0  0
  2  8  1  6  0  0  0
  3  5  1  0  0  0  0
  4  6  1  0  0  0  0
  4  9  1  1  0  0  0
  5  6  1  0  0  0  0
  5 11  1  1  0  0  0
  6 10  1  6  0  0  0
 12 11  1  0  0  0  0
 13 14  1  0  0  0  0
 13 15  1  0  0  0  0
 13 10  1  1  0  0  0
 14 16  1  0  0  0  0
 14 19  1  6  0  0  0
 15 17  1  0  0  0  0
 16 18  1  0  0  0  0
 16 20  1  1  0  0  0
 17 18  1  0  0  0  0
 17 22  1  1  0  0  0
 18 21  1  1  0  0  0
 22 23  1  0  0  0  0
M  END
> <ID>
CHEBI:17716

> <NAME>
lactose

> <DEFINITION>
A  glycosylglucose disaccharide, found most notably in milk, that consists of D-galactose and D-glucose fragments bonded through a β-1→4 glycosidic linkage. The glucose fragment can be in either the α- or β-pyranose form, whereas the galactose fragment can only have the β-pyranose form.

> <STAR>
3

> <SECONDARY_ID>
CHEBI:27755; CHEBI:22760; CHEBI:14497; CHEBI:10296; CHEBI:22460; CHEBI:25005; CHEBI:613009; CHEBI:10380; CHEBI:27968; CHEBI:28577

> <SYNONYM>
milk sugar; Milk sugar; Milchzucker; Laktose; Laktobiose; lactose; lactobiose; Lac; Galbeta1-4Glc; D-lactose; beta-Gal1,4-Glc; beta-D-Galp-(1->4)-D-Glcp; beta-D-Gal-(1->4)-D-Glc; beta-D-Gal-(1->4)-D-Glc; 4-O-beta-D-galactopyranosyl-D-glucose; 4-(beta-D-galactosido)-D-glucose; 1-beta-D-Galactopyranosyl-4-D-glucopyranose; (Gal)1 (Glc)1; (+)-lactose

> <IUPAC_NAME>
beta-D-galactopyranosyl-(1->4)-D-glucopyranose

> <FORMULA>
C12H22O11

> <MASS>
342.29648

> <MONOISOTOPIC_MASS>
342.11621

> <CHARGE>
0

> <SMILES>
OC[C@H]1O[C@@H](O[C@@H]2[C@@H](CO)OC(O)[C@H](O)[C@H]2O)[C@H](O)[C@@H](O)[C@H]1O

> <INCHI>
InChI=1S/C12H22O11/c13-1-3-5(15)6(16)9(19)12(22-3)23-10-4(2-14)21-11(20)8(18)7(10)17/h3-20H,1-2H2/t3-,4-,5+,6+,7-,8-,9-,10-,11?,12+/m1/s1

> <INCHIKEY>
GUBGYTABKSRVRQ-QKKXKWKRSA-N

> <BEILSTEIN_REGISTRY_NUMBER>
1292745

> <CAS_REGISTRY_NUMBER>
63-42-3

> <GMELIN_REGISTRY_NUMBER>
882872

> <REAXYS_REGISTRY_NUMBER>
1292745

> <CHEMIDPLUS>
63-42-3

> <KEGG_COMPOUND_ACCESSION>
C00243

> <KEGG_DRUG_ACCESSION>
D00046

> <KEGG_GLYCAN_ACCESSION>
G10504

> <KNAPSACK_ACCESSION>
C00001136

> <NIST_CHEMISTRY_WEBBOOK>
63-42-3

> <PUBMED_CITATION>
1292745; 17329833; 18300214; 19846069; 19913595; 20094999; 20503067; 20699559; 20873837; 20961532; 21403918; 2432147; 2456994; 28690131; 28807538; 6194884; 7574700; 19053747

$$$$

Marvin  08111016282D          

 47 49  0  0  1  0            999 V2000
   15.5834   -8.6322    0.0000 O   0  0  0  0  0  0  0  0  0  0  0  0
   13.4611   -9.0566    0.0000 C   0  0  1  0  0  0  0  0  0  0  0  0
   14.1685   -8.6322    0.0000 O   0  0  0  0  0  0  0  0  0  0  0  0
   13.4611   -9.8772    0.0000 C   0  0  2  0  0  0  0  0  0  0  0  0
   14.8760   -9.0566    0.0000 C   0  0  2  0  0  0  0  0  0  0  0  0
   14.1685  -10.2734    0.0000 C   0  0  1  0  0  0  0  0  0  0  0  0
   12.7537  -10.2734    0.0000 O   0  0  0  0  0  0  0  0  0  0  0  0
   14.8760   -9.8772    0.0000 C   0  0  1  0  0  0  0  0  0  0  0  0
   14.1685  -11.0940    0.0000 O   0  0  0  0  0  0  0  0  0  0  0  0
   15.5554  -10.3296    0.0000 N   0  0  0  0  0  0  0  0  0  0  0  0
   12.7254   -8.6322    0.0000 C   0  0  0  0  0  0  0  0  0  0  0  0
    9.7541  -10.3866    0.0000 C   0  0  0  0  0  0  0  0  0  0  0  0
   10.4615  -10.7829    0.0000 C   0  0  1  0  0  0  0  0  0  0  0  0
   11.1407  -10.3866    0.0000 O   0  0  0  0  0  0  0  0  0  0  0  0
   10.4615  -11.6034    0.0000 C   0  0  1  0  0  0  0  0  0  0  0  0
   11.8764  -10.7829    0.0000 C   0  0  2  0  0  0  0  0  0  0  0  0
   11.1407  -11.9996    0.0000 C   0  0  1  0  0  0  0  0  0  0  0  0
    9.7541  -11.9996    0.0000 O   0  0  0  0  0  0  0  0  0  0  0  0
   11.8764  -11.6034    0.0000 C   0  0  1  0  0  0  0  0  0  0  0  0
   11.1690  -12.8203    0.0000 O   0  0  0  0  0  0  0  0  0  0  0  0
   12.5839  -11.9996    0.0000 O   0  0  0  0  0  0  0  0  0  0  0  0
   11.9896   -9.0566    0.0000 O   0  0  0  0  0  0  0  0  0  0  0  0
    9.0183  -10.8110    0.0000 O   0  0  0  0  0  0  0  0  0  0  0  0
    8.2826  -10.3866    0.0000 C   0  0  1  0  0  0  0  0  0  0  0  0
    7.5751   -9.9621    0.0000 O   0  0  0  0  0  0  0  0  0  0  0  0
    8.2826  -11.2073    0.0000 C   0  0  0  0  0  0  0  0  0  0  0  0
    7.5751  -11.6318    0.0000 C   0  0  1  0  0  0  0  0  0  0  0  0
    6.8394  -11.2073    0.0000 C   0  0  1  0  0  0  0  0  0  0  0  0
    7.5751  -12.4524    0.0000 O   0  0  0  0  0  0  0  0  0  0  0  0
    6.1226   -9.9781    0.0000 C   0  0  1  0  0  0  0  0  0  0  0  0
    5.3922  -10.4109    0.0000 C   0  0  1  0  0  0  0  0  0  0  0  0
    4.6132   -9.9843    0.0000 C   0  0  0  0  0  0  0  0  0  0  0  0
    3.8585  -10.4315    0.0000 O   0  0  0  0  0  0  0  0  0  0  0  0
    6.8533   -9.4317    0.0000 H   0  0  0  0  0  0  0  0  0  0  0  0
    6.1226   -9.0900    0.0000 O   0  0  0  0  0  0  0  0  0  0  0  0
    6.1036  -11.6318    0.0000 N   0  0  0  0  0  0  0  0  0  0  0  0
    6.1036  -12.5089    0.0000 C   0  0  0  0  0  0  0  0  0  0  0  0
    5.3396  -12.9334    0.0000 C   0  0  0  0  0  0  0  0  0  0  0  0
    6.8394  -12.9334    0.0000 O   0  0  0  0  0  0  0  0  0  0  0  0
    8.7070   -9.7348    0.0000 C   0  0  0  0  0  0  0  0  0  0  0  0
    9.5559   -9.7348    0.0000 O   0  0  0  0  0  0  0  0  0  0  0  0
    8.2826   -8.9991    0.0000 O   0  0  0  0  0  0  0  0  0  0  0  0
   15.5431  -11.1747    0.0000 C   0  0  0  0  0  0  0  0  0  0  0  0
   14.8078  -11.5851    0.0000 O   0  0  0  0  0  0  0  0  0  0  0  0
   16.2662  -11.6063    0.0000 C   0  0  0  0  0  0  0  0  0  0  0  0
    5.3922  -11.2359    0.0000 O   0  0  0  0  0  0  0  0  0  0  0  0
    6.8394  -10.3866    0.0000 C   0  0  2  0  0  0  0  0  0  0  0  0
  6  8  1  0  0  0  0
  2 11  1  1  0  0  0
  2  3  1  0  0  0  0
  2  4  1  0  0  0  0
  3  5  1  0  0  0  0
  4  6  1  0  0  0  0
  4  7  1  6  0  0  0
  5  8  1  0  0  0  0
  5  1  1  1  0  0  0
  6  9  1  1  0  0  0
  8 10  1  6  0  0  0
 13 12  1  1  0  0  0
 13 14  1  0  0  0  0
 13 15  1  0  0  0  0
 14 16  1  0  0  0  0
 15 17  1  0  0  0  0
 15 18  1  1  0  0  0
 16 19  1  0  0  0  0
 16  7  1  1  0  0  0
 17 20  1  1  0  0  0
 19 21  1  6  0  0  0
 17 19  1  0  0  0  0
 11 22  1  0  0  0  0
 12 23  1  0  0  0  0
 24 25  1  0  0  0  0
 24 26  1  0  0  0  0
 25 47  1  0  0  0  0
 26 27  1  0  0  0  0
 47 28  1  0  0  0  0
 27 29  1  6  0  0  0
 27 28  1  0  0  0  0
 30 31  1  0  0  0  0
 31 32  1  0  0  0  0
 32 33  1  0  0  0  0
 47 34  1  1  0  0  0
 30 35  1  1  0  0  0
 28 36  1  1  0  0  0
 36 37  1  0  0  0  0
 37 38  1  0  0  0  0
 37 39  2  0  0  0  0
 24 40  1  0  0  0  0
 24 23  1  6  0  0  0
 40 41  2  0  0  0  0
 40 42  1  0  0  0  0
 10 43  1  0  0  0  0
 43 44  2  0  0  0  0
 43 45  1  0  0  0  0
 31 46  1  6  0  0  0
 30 47  1  0  0  0  0
M  END
> <ID>
CHEBI:17725

> <NAME>
alpha-N-acetylneuraminyl-(2->6)-beta-D-galactosyl-(1->4)-N-acetyl-beta-D-glucosamine

> <DEFINITION>
An amino trisaccharide consisting of an N-acetyl-α-neuraminyl residue attached to the galactose residue of N-acetyllactosamine via an α-(2→6)-linkage.

> <STAR>
3

> <SECONDARY_ID>
CHEBI:10312; CHEBI:12300; CHEBI:22434

> <SYNONYM>
O-(N-Acetyl-alpha-neuraminosyl)-(2->6)-O-beta-delta-galactopyranosyl-(1->-4)-2-(acetylamino)-2-deoxy-beta-delta-Glucopyranose; O-(N-Acetyl-alpha-neuraminosyl)-(26)-O-beta-D-galactopyranosyl-(1->-4)-2-(acetylamino)-2-deoxy-beta-D-Glucopyranose; O-(N-Acetyl-a-neuraminosyl)-(2->6)-O-b-D-galactopyranosyl-(1->4)-2-(acetylamino)-2-deoxy-b-D-Glucopyranose; Neuacalpha2-6Galbeta1-4GlcNAcbeta; Neuacalpha2,6GalNAcbeta1,4GlcNAc; NeuAcalpha2,6Galbeta1,4GlcNAc; Neuac-lact; Neu5Aca2-6Galb1-4GlcNAcb; N-Acetylneuraminosyl(alpha2-6)lactosamine; alpha-NeupNAc-(2->6)-beta-D-Galp-(1->4)-beta-D-GlcpNAc; alpha-NeuNAc-(2->6)-beta-D-Gal-(1->4)-beta-D-GlcNAc; alpha-N-Acetylneuraminyl-2,6-beta-delta-galactosyl-1,4-N-acetyl-beta-delta-glucosamine; alpha-N-Acetylneuraminyl-2,6-beta-D-galactosyl-1,4-N-acetyl-beta-D-glucosamine; alpha-N-Acetylneuraminyl-2,6-beta-D-galactosyl-1,4-N-acetyl-beta-D-glucosamine; alpha-N-acetylneuraminyl-2,6-beta-D-galactosyl-1,4-N-acetyl-beta-D-glucosamine; 6-Sialyllactosamine; 6'-Sialyllactosamine; (N-acetylneuraminosyl(alpha2-6)lactosamine); (2R,4S,5R,6R)-5-acetamido-2-{[(2R,3R,4S,5R,6S)-6-{[(2R,3S,4R,5R,6R)-5-acetamido-4,6-dihydroxy-2-(hydroxymethyl)oxan-3-yl]oxy}-3,4,5-trihydroxyoxan-2-yl]methoxy}-4-hydroxy-6-[(1R,2R)-1,2,3-trihydroxypropyl]oxane-2-carboxylic acid

> <IUPAC_NAME>
5-acetamido-3,5-dideoxy-D-glycero-alpha-D-galacto-non-2-ulopyranonosyl-(2->6)-beta-D-galactopyranosyl-(1->4)-2-acetamido-2-deoxy-beta-D-glucopyranose

> <FORMULA>
C25H42N2O19

> <MASS>
674.60300

> <MONOISOTOPIC_MASS>
674.23818

> <CHARGE>
0

> <SMILES>
[H][C@]1(O[C@@](C[C@H](O)[C@H]1NC(C)=O)(OC[C@H]1O[C@@H](O[C@H]2[C@H](O)[C@@H](NC(C)=O)[C@H](O)O[C@@H]2CO)[C@H](O)[C@@H](O)[C@H]1O)C(O)=O)[C@H](O)[C@H](O)CO

> <INCHI>
InChI=1S/C25H42N2O19/c1-7(30)26-13-9(32)3-25(24(40)41,46-21(13)15(34)10(33)4-28)42-6-12-16(35)18(37)19(38)23(44-12)45-20-11(5-29)43-22(39)14(17(20)36)27-8(2)31/h9-23,28-29,32-39H,3-6H2,1-2H3,(H,26,30)(H,27,31)(H,40,41)/t9-,10+,11+,12+,13+,14+,15+,16-,17+,18-,19+,20+,21+,22+,23-,25+/m0/s1

> <INCHIKEY>
RPSBVJXBTXEJJG-LURNZOHQSA-N

> <BEILSTEIN_REGISTRY_NUMBER>
5721087

> <CAS_REGISTRY_NUMBER>
64364-50-7

> <CHEMIDPLUS>
64364-50-7

> <HMDB_ACCESSION>
HMDB0001081

> <KEGG_COMPOUND_ACCESSION>
C04886

> <METACYC_ACCESSION>
ALPHA-N-ACETYLNEURAMINYL-26-BETA

> <PUBMED_CITATION>
10619708; 10683228; 10940350; 11425186; 11685546; 12954214; 19443021; 25568069; 31537530

$$$$

Marvin  01200614542D          

 17 18  0  0  1  0            999 V2000
   -1.0357   -0.7785    0.0000 C   0  0  2  0  0  0  0  0  0  0  0  0
   -1.0357    0.0465    0.0000 N   0  0  0  0  0  0  0  0  0  0  0  0
   -1.7032   -1.2635    0.0000 O   0  0  0  0  0  0  0  0  0  0  0  0
   -0.3683   -1.2635    0.0000 C   0  0  0  0  0  0  0  0  0  0  0  0
   -0.3213    0.4590    0.0000 C   0  0  0  0  0  0  0  0  0  0  0  0
   -1.7502    0.4590    0.0000 C   0  0  0  0  0  0  0  0  0  0  0  0
   -1.4482   -2.0481    0.0000 C   0  0  1  0  0  0  0  0  0  0  0  0
   -0.6232   -2.0481    0.0000 C   0  0  1  0  0  0  0  0  0  0  0  0
   -0.3213    1.2840    0.0000 N   0  0  0  0  0  0  0  0  0  0  0  0
    0.3932    0.0465    0.0000 O   0  0  0  0  0  0  0  0  0  0  0  0
   -1.7502    1.2840    0.0000 C   0  0  0  0  0  0  0  0  0  0  0  0
   -0.1383   -2.7155    0.0000 O   0  0  0  0  0  0  0  0  0  0  0  0
   -1.0357    1.6965    0.0000 C   0  0  0  0  0  0  0  0  0  0  0  0
   -2.4647    1.6965    0.0000 C   0  0  0  0  0  0  0  0  0  0  0  0
   -1.0357    2.5215    0.0000 O   0  0  0  0  0  0  0  0  0  0  0  0
   -1.9332   -2.7155    0.0000 C   0  0  0  0  0  0  0  0  0  0  0  0
   -1.7617   -3.5224    0.0000 O   0  0  0  0  0  0  0  0  0  0  0  0
  1  2  1  1  0  0  0
  1  3  1  0  0  0  0
  1  4  1  0  0  0  0
  2  5  1  0  0  0  0
  2  6  1  0  0  0  0
  3  7  1  0  0  0  0
  4  8  1  0  0  0  0
  5  9  1  0  0  0  0
  5 10  2  0  0  0  0
  6 11  2  0  0  0  0
  7 16  1  1  0  0  0
  8 12  1  6  0  0  0
  9 13  1  0  0  0  0
 11 14  1  0  0  0  0
 13 15  2  0  0  0  0
  7  8  1  0  0  0  0
 11 13  1  0  0  0  0
 16 17  1  0  0  0  0
M  END
> <ID>
CHEBI:17748

> <NAME>
thymidine

> <DEFINITION>
A pyrimidine 2'-deoxyribonucleoside having thymine as the nucleobase.

> <STAR>
3

> <SECONDARY_ID>
CHEBI:19273; CHEBI:45834; CHEBI:45917; CHEBI:45918; CHEBI:45782; CHEBI:9579; CHEBI:15244

> <SYNONYM>
thymine 2'-deoxyriboside; thymidine; THYMIDINE; Thymidine; T; dThd; Deoxythymidine; 5-methyl-2'-deoxyuridine; 2'-thymidine; 2'-deoxythymidine; 2'-deoxy-5-methyluridine; 1-(2-deoxy-beta-D-erythro-pentofuranosyl)-5-methylpyrimidine-2,4(1H,3H)-dione

> <IUPAC_NAME>
thymidine

> <FORMULA>
C10H14N2O5

> <MASS>
242.22860

> <MONOISOTOPIC_MASS>
242.09027

> <CHARGE>
0

> <SMILES>
Cc1cn([C@H]2C[C@H](O)[C@@H](CO)O2)c(=O)[nH]c1=O

> <INCHI>
InChI=1S/C10H14N2O5/c1-5-3-12(10(16)11-9(5)15)8-2-6(14)7(4-13)17-8/h3,6-8,13-14H,2,4H2,1H3,(H,11,15,16)/t6-,7+,8+/m0/s1

> <INCHIKEY>
IQFYYKKMVGJFEH-XLPZGREQSA-N

> <BEILSTEIN_REGISTRY_NUMBER>
89285

> <CAS_REGISTRY_NUMBER>
50-89-5

> <GMELIN_REGISTRY_NUMBER>
282610

> <REAXYS_REGISTRY_NUMBER>
89285

> <CHEMIDPLUS>
50-89-5

> <DRUGBANK_ACCESSION>
DB04485

> <HMDB_ACCESSION>
HMDB0000273

> <KEGG_COMPOUND_ACCESSION>
C00214

> <KNAPSACK_ACCESSION>
C00019698

> <METACYC_ACCESSION>
THYMIDINE

> <PDBECHEM_ACCESSION>
THM

> <WIKIPEDIA_ACCESSION>
Thymidine

> <PUBMED_CITATION>
22770225; 2559771

$$$$

Marvin  11300615162D          

 18 20  0  0  0  0            999 V2000
    0.7145    0.4125    0.0000 C   0  0  0  0  0  0  0  0  0  0  0  0
    0.7145   -0.4125    0.0000 C   0  0  0  0  0  0  0  0  0  0  0  0
   -0.7145    0.4125    0.0000 C   0  0  0  0  0  0  0  0  0  0  0  0
   -0.7145   -0.4125    0.0000 C   0  0  0  0  0  0  0  0  0  0  0  0
   -1.4289    0.8250    0.0000 C   0  0  0  0  0  0  0  0  0  0  0  0
   -1.4289   -0.8250    0.0000 C   0  0  0  0  0  0  0  0  0  0  0  0
   -2.1434   -0.4125    0.0000 C   0  0  0  0  0  0  0  0  0  0  0  0
   -2.1434    0.4125    0.0000 C   0  0  0  0  0  0  0  0  0  0  0  0
    2.1434    0.4125    0.0000 C   0  0  0  0  0  0  0  0  0  0  0  0
    0.0000   -0.8250    0.0000 N   0  0  0  0  0  0  0  0  0  0  0  0
    1.4289   -0.8250    0.0000 C   0  0  0  0  0  0  0  0  0  0  0  0
    1.4289   -1.6500    0.0000 O   0  0  0  0  0  0  0  0  0  0  0  0
    2.8579    0.8250    0.0000 O   0  0  0  0  0  0  0  0  0  0  0  0
    0.0000    0.8250    0.0000 N   0  0  0  0  0  0  0  0  0  0  0  0
    2.1434   -0.4125    0.0000 N   0  0  0  0  0  0  0  0  0  0  0  0
    1.4289    0.8250    0.0000 N   0  0  0  0  0  0  0  0  0  0  0  0
   -2.8579   -0.8250    0.0000 C   0  0  0  0  0  0  0  0  0  0  0  0
   -2.8579    0.8250    0.0000 C   0  0  0  0  0  0  0  0  0  0  0  0
 14  3  1  0  0  0  0
 14  1  2  0  0  0  0
  4 10  1  0  0  0  0
 10  2  2  0  0  0  0
 16  1  1  0  0  0  0
  2  1  1  0  0  0  0
  2 11  1  0  0  0  0
 16  9  1  0  0  0  0
 11 15  1  0  0  0  0
 15  9  1  0  0  0  0
  5  3  2  0  0  0  0
  3  4  1  0  0  0  0
  6  4  2  0  0  0  0
  5  8  1  0  0  0  0
  8  7  2  0  0  0  0
  7  6  1  0  0  0  0
  9 13  2  0  0  0  0
 11 12  2  0  0  0  0
  8 18  1  0  0  0  0
  7 17  1  0  0  0  0
M  END
> <ID>
CHEBI:17781

> <NAME>
lumichrome

> <DEFINITION>
A compound showing blue fluorescence, formed by a photolysis of riboflavin in acid or neutral solution.

> <STAR>
3

> <SECONDARY_ID>
CHEBI:43772; CHEBI:6561; CHEBI:14534; CHEBI:25080

> <SYNONYM>
lumichrome; LUMICHROME; Lumichrome; 7,8-Dimethylalloxazine

> <IUPAC_NAME>
7,8-dimethylbenzo[g]pteridine-2,4(1H,3H)-dione

> <FORMULA>
C12H10N4O2

> <MASS>
242.23356

> <MONOISOTOPIC_MASS>
242.08038

> <CHARGE>
0

> <SMILES>
Cc1cc2nc3[nH]c(=O)[nH]c(=O)c3nc2cc1C

> <INCHI>
InChI=1S/C12H10N4O2/c1-5-3-7-8(4-6(5)2)14-10-9(13-7)11(17)16-12(18)15-10/h3-4H,1-2H3,(H2,14,15,16,17,18)

> <INCHIKEY>
ZJTJUVIJVLLGSP-UHFFFAOYSA-N

> <BEILSTEIN_REGISTRY_NUMBER>
226631

> <CAS_REGISTRY_NUMBER>
1086-80-2

> <REAXYS_REGISTRY_NUMBER>
226631

> <CHEMIDPLUS>
1086-80-2

> <DRUGBANK_ACCESSION>
DB04345

> <KEGG_COMPOUND_ACCESSION>
C01727

> <KNAPSACK_ACCESSION>
C00030694

> <METACYC_ACCESSION>
CPD-605

> <NIST_CHEMISTRY_WEBBOOK>
1086-80-2

> <PDBECHEM_ACCESSION>
LUM

> <PUBMED_CITATION>
15819908; 21126007; 22953948; 24001807; 24451190; 24643482

$$$$

Marvin  10050614532D          

  2  1  0  0  0  0            999 V2000
   -0.4125    0.0000    0.0000 C   0  0  0  0  0  0  0  0  0  0  0  0
    0.4125    0.0000    0.0000 O   0  0  0  0  0  0  0  0  0  0  0  0
  1  2  1  0  0  0  0
M  END
> <ID>
CHEBI:17790

> <NAME>
methanol

> <DEFINITION>
The primary alcohol that is the simplest aliphatic alcohol, comprising a methyl and an alcohol group.

> <STAR>
3

> <SECONDARY_ID>
CHEBI:44553; CHEBI:44080; CHEBI:6816; CHEBI:14588; CHEBI:25227

> <SYNONYM>
wood spirit; wood naphtha; wood alcohol; spirit of wood; Methylalkohol; Methyl alcohol; methanol; METHANOL; Methanol; MeOH; CH3OH; carbinol

> <IUPAC_NAME>
methanol

> <FORMULA>
CH4O

> <MASS>
32.04186

> <MONOISOTOPIC_MASS>
32.02621

> <CHARGE>
0

> <SMILES>
CO

> <INCHI>
InChI=1S/CH4O/c1-2/h2H,1H3

> <INCHIKEY>
OKKJLVBELUTLKV-UHFFFAOYSA-N

> <BEILSTEIN_REGISTRY_NUMBER>
1098229

> <CAS_REGISTRY_NUMBER>
67-56-1

> <GMELIN_REGISTRY_NUMBER>
449

> <REAXYS_REGISTRY_NUMBER>
1098229

> <CHEMIDPLUS>
67-56-1

> <HMDB_ACCESSION>
HMDB0001875

> <KEGG_COMPOUND_ACCESSION>
C00132

> <KEGG_DRUG_ACCESSION>
D02309

> <METACYC_ACCESSION>
METOH

> <NIST_CHEMISTRY_WEBBOOK>
67-56-1

> <PDBECHEM_ACCESSION>
MOH

> <WIKIPEDIA_ACCESSION>
Methanol

> <PUBMED_CITATION>
11141607; 11430978; 11489599; 11680737; 11684179; 14012711; 14678513; 14760634; 15172721; 15906011; 16705261; 17451998; 17733096; 19064074; 19850112; 20314698

$$$$

Marvin  01220714192D          

  9  9  0  0  0  0            999 V2000
    0.0000    0.6417    0.0000 C   0  0  0  0  0  0  0  0  0  0  0  0
    0.7145    0.2292    0.0000 C   0  0  0  0  0  0  0  0  0  0  0  0
   -0.7145    0.2292    0.0000 N   0  0  0  0  0  0  0  0  0  0  0  0
    0.0000    1.4667    0.0000 O   0  0  0  0  0  0  0  0  0  0  0  0
    0.7145   -0.5958    0.0000 C   0  0  0  0  0  0  0  0  0  0  0  0
    1.4289    0.6417    0.0000 C   0  0  0  0  0  0  0  0  0  0  0  0
   -0.7145   -0.5958    0.0000 C   0  0  0  0  0  0  0  0  0  0  0  0
    0.0000   -1.0083    0.0000 N   0  0  0  0  0  0  0  0  0  0  0  0
   -1.4289   -1.0083    0.0000 O   0  0  0  0  0  0  0  0  0  0  0  0
  1  2  1  0  0  0  0
  1  3  1  0  0  0  0
  1  4  2  0  0  0  0
  2  5  2  0  0  0  0
  2  6  1  0  0  0  0
  3  7  1  0  0  0  0
  5  8  1  0  0  0  0
  7  9  2  0  0  0  0
  7  8  1  0  0  0  0
M  END
> <ID>
CHEBI:17821

> <NAME>
thymine

> <DEFINITION>
A pyrimidine nucleobase that is uracil in which the hydrogen at position 5 is replaced by a methyl group.

> <STAR>
3

> <SECONDARY_ID>
CHEBI:46017; CHEBI:9580; CHEBI:15247; CHEBI:27004

> <SYNONYM>
thymine; THYMINE; Thymine; Thymin; Thy; T; 5-methyluracil; 5-Methyluracil; 5-methylpyrimidine-2,4(1H,3H)-dione; 5-methyl-2,4(1H,3H)-pyrimidinedione; 2,4-dihydroxy-5-methylpyrimidine

> <IUPAC_NAME>
thymine

> <FORMULA>
C5H6N2O2

> <MASS>
126.11342

> <MONOISOTOPIC_MASS>
126.04293

> <CHARGE>
0

> <SMILES>
Cc1c[nH]c(=O)[nH]c1=O

> <INCHI>
InChI=1S/C5H6N2O2/c1-3-2-6-5(9)7-4(3)8/h2H,1H3,(H2,6,7,8,9)

> <INCHIKEY>
RWQNBRDOKXIBIV-UHFFFAOYSA-N

> <BEILSTEIN_REGISTRY_NUMBER>
607626

> <CAS_REGISTRY_NUMBER>
65-71-4

> <GMELIN_REGISTRY_NUMBER>
278790

> <CHEMIDPLUS>
65-71-4

> <DRUGBANK_ACCESSION>
DB03462

> <KEGG_COMPOUND_ACCESSION>
C00178

> <KNAPSACK_ACCESSION>
C00001511

> <NIST_CHEMISTRY_WEBBOOK>
65-71-4

> <PDBECHEM_ACCESSION>
TDR

> <WIKIPEDIA_ACCESSION>
Thymine

> <PUBMED_CITATION>
23237383

$$$$

Marvin  03030808492D          

 12 11  0  0  0  0            999 V2000
    1.7862   -0.2062    0.0000 C   0  0  0  0  0  0  0  0  0  0  0  0
    2.5006    0.2063    0.0000 O   0  0  0  0  0  0  0  0  0  0  0  0
   -1.7862    0.2062    0.0000 C   0  0  0  0  0  0  0  0  0  0  0  0
   -2.5006   -0.2063    0.0000 O   0  0  0  0  0  0  0  0  0  0  0  0
    0.3572   -0.2062    0.0000 C   0  0  1  0  0  0  0  0  0  0  0  0
    0.3572   -1.0313    0.0000 O   0  0  0  0  0  0  0  0  0  0  0  0
   -1.0717   -0.2063    0.0000 C   0  0  2  0  0  0  0  0  0  0  0  0
   -1.0717   -1.0313    0.0000 O   0  0  0  0  0  0  0  0  0  0  0  0
   -0.3572    0.2063    0.0000 C   0  0  1  0  0  0  0  0  0  0  0  0
   -0.3572    1.0313    0.0000 O   0  0  0  0  0  0  0  0  0  0  0  0
    1.0717    0.2063    0.0000 C   0  0  2  0  0  0  0  0  0  0  0  0
    1.0717    1.0313    0.0000 O   0  0  0  0  0  0  0  0  0  0  0  0
  1 11  1  0  0  0  0
 11  5  1  0  0  0  0
  5  9  1  0  0  0  0
  9  7  1  0  0  0  0
  7  3  1  0  0  0  0
  1  2  1  0  0  0  0
  3  4  1  0  0  0  0
  5  6  1  1  0  0  0
  7  8  1  1  0  0  0
  9 10  1  1  0  0  0
 11 12  1  6  0  0  0
M  END
> <ID>
CHEBI:17924

> <NAME>
D-glucitol

> <DEFINITION>
The D-enantiomer of glucitol (also known as D-sorbitol).

> <STAR>
3

> <SECONDARY_ID>
CHEBI:4246; CHEBI:21091; CHEBI:45559; CHEBI:13020; CHEBI:12954; CHEBI:17220

> <SYNONYM>
L-Gulitol; Glc-ol; G-ol; E420; E-420; E 420; D-sorbitol; D-Sorbitol; D-SORBITOL; D-Sorbit; D-Glucitol; D-(-)-sorbitol; (2R,3R,4R,5S)-hexane-1,2,3,4,5,6-hexol; (-)-sorbitol

> <IUPAC_NAME>
D-glucitol

> <FORMULA>
C6H14O6

> <MASS>
182.17176

> <MONOISOTOPIC_MASS>
182.07904

> <CHARGE>
0

> <SMILES>
OC[C@H](O)[C@@H](O)[C@H](O)[C@H](O)CO

> <INCHI>
InChI=1S/C6H14O6/c7-1-3(9)5(11)6(12)4(10)2-8/h3-12H,1-2H2/t3-,4+,5-,6-/m1/s1

> <INCHIKEY>
FBPFZTCFMRRESA-JGWLITMVSA-N

> <BEILSTEIN_REGISTRY_NUMBER>
4656395

> <CAS_REGISTRY_NUMBER>
50-70-4

> <GMELIN_REGISTRY_NUMBER>
83162

> <REAXYS_REGISTRY_NUMBER>
1721899

> <CHEMIDPLUS>
50-70-4

> <DRUGBANK_ACCESSION>
DB01638

> <HMDB_ACCESSION>
HMDB0000247

> <KEGG_COMPOUND_ACCESSION>
C00794

> <KEGG_DRUG_ACCESSION>
D00096

> <KNAPSACK_ACCESSION>
C00001173

> <NIST_CHEMISTRY_WEBBOOK>
50-70-4

> <PDBECHEM_ACCESSION>
SOR

> <WIKIPEDIA_ACCESSION>
Sorbitol

> <PUBMED_CITATION>
16901854; 17336832; 17979222; 19443021; 19695255; 22735334; 22878210; 23683321; 24643482; 25108762; 25568069; 31537530

$$$$

Marvin  02060712222D          

 12 12  0  0  1  0            999 V2000
    0.0000   -0.8250    0.0000 C   0  0  1  0  0  0  0  0  0  0  0  0
    0.0000   -1.6500    0.0000 O   0  0  0  0  0  0  0  0  0  0  0  0
   -0.7145   -0.4125    0.0000 C   0  0  2  0  0  0  0  0  0  0  0  0
   -1.4289   -0.8250    0.0000 O   0  0  0  0  0  0  0  0  0  0  0  0
   -0.7145    0.4125    0.0000 C   0  0  2  0  0  0  0  0  0  0  0  0
    0.7145    0.4125    0.0000 C   0  0  1  0  0  0  0  0  0  0  0  0
    1.4289    0.8250    0.0000 O   0  0  0  0  0  0  0  0  0  0  0  0
    1.4289   -0.8250    0.0000 O   0  0  0  0  0  0  0  0  0  0  0  0
    0.0000    0.8250    0.0000 O   0  0  0  0  0  0  0  0  0  0  0  0
    0.7145   -0.4125    0.0000 C   0  0  2  0  0  0  0  0  0  0  0  0
   -1.4289    0.8250    0.0000 C   0  0  0  0  0  0  0  0  0  0  0  0
   -2.1434    0.4125    0.0000 O   0  0  0  0  0  0  0  0  0  0  0  0
  5  3  1  0  0  0  0
  5  9  1  0  0  0  0
  3  1  1  0  0  0  0
  9  6  1  0  0  0  0
  1 10  1  0  0  0  0
  6 10  1  0  0  0  0
  1  2  1  1  0  0  0
  3  4  1  6  0  0  0
  5 11  1  1  0  0  0
  6  7  1  6  0  0  0
 10  8  1  6  0  0  0
 11 12  1  0  0  0  0
M  END
> <ID>
CHEBI:17925

> <NAME>
alpha-D-glucose

> <DEFINITION>
D-Glucopyranose having α-configuration at the anomeric centre.

> <STAR>
3

> <SECONDARY_ID>
CHEBI:40557; CHEBI:42802; CHEBI:10242; CHEBI:12318; CHEBI:22386

> <SYNONYM>
alpha-dextrose; alpha-D-glucose; ALPHA-D-GLUCOSE; alpha-D-Glucose; alpha-D-Glc

> <IUPAC_NAME>
alpha-D-glucopyranose

> <FORMULA>
C6H12O6

> <MASS>
180.15588

> <MONOISOTOPIC_MASS>
180.06339

> <CHARGE>
0

> <SMILES>
OC[C@H]1O[C@H](O)[C@H](O)[C@@H](O)[C@@H]1O

> <INCHI>
InChI=1S/C6H12O6/c7-1-2-3(8)4(9)5(10)6(11)12-2/h2-11H,1H2/t2-,3-,4+,5-,6+/m1/s1

> <INCHIKEY>
WQZGKKKJIJFFOK-DVKNGEFBSA-N

> <BEILSTEIN_REGISTRY_NUMBER>
5730158

> <CAS_REGISTRY_NUMBER>
492-62-6

> <GMELIN_REGISTRY_NUMBER>
329225

> <CHEMIDPLUS>
492-62-6

> <KEGG_COMPOUND_ACCESSION>
C00267

> <KNAPSACK_ACCESSION>
C00001122

> <NIST_CHEMISTRY_WEBBOOK>
492-62-6

> <PDBECHEM_ACCESSION>
GLC

> <PUBMED_CITATION>
19443021; 25568069; 31537530

$$$$
ChEBI


 34 37  0  0  1  0  0  0  0  0  1 V2000
    9.9771   -6.9303    0.0000 N   0  0  0  0  0  0  0  0  0  0  0  0
    9.2599   -6.7027    0.0000 C   0  0  0  0  0  0  0  0  0  0  0  0
    9.4288   -8.3234    0.0000 C   0  0  0  0  0  0  0  0  0  0  0  0
   10.4219   -6.3268    0.0000 C   0  0  0  0  0  0  0  0  0  0  0  0
    9.2599   -5.9441    0.0000 C   0  0  0  0  0  0  0  0  0  0  0  0
    8.6012   -7.0854    0.0000 N   0  0  0  0  0  0  0  0  0  0  0  0
    9.2012   -9.0268    0.0000 C   0  0  0  0  0  0  0  0  0  0  0  0
    8.8081   -7.8751    0.0000 O   0  0  0  0  0  0  0  0  0  0  0  0
    9.9805   -5.7096    0.0000 N   0  0  0  0  0  0  0  0  0  0  0  0
    8.6012   -5.5682    0.0000 C   0  0  0  0  0  0  0  0  0  0  0  0
    7.9530   -6.7027    0.0000 C   0  0  0  0  0  0  0  0  0  0  0  0
    8.4495   -9.0268    0.0000 C   0  0  0  0  0  0  0  0  0  0  0  0
    9.6461   -9.6303    0.0000 O   0  0  0  0  0  0  0  0  0  0  0  0
    8.2081   -8.3096    0.0000 C   0  0  0  0  0  0  0  0  0  0  0  0
    7.9530   -5.9441    0.0000 N   0  0  0  0  0  0  0  0  0  0  0  0
    8.6012   -4.8199    0.0000 N   0  0  0  0  0  0  0  0  0  0  0  0
    8.0185   -9.6372    0.0000 N   0  0  0  0  0  0  0  0  0  0  0  0
    7.4909   -8.0820    0.0000 C   0  0  0  0  0  0  0  0  0  0  0  0
    9.2495   -4.4406    0.0000 C   0  0  0  0  0  0  0  0  0  0  0  0
    7.9495   -4.4475    0.0000 C   0  0  0  0  0  0  0  0  0  0  0  0
    8.3323  -10.3165    0.0000 C   0  0  0  0  0  0  0  0  0  0  0  0
    6.9392   -8.5889    0.0000 O   0  0  0  0  0  0  0  0  0  0  0  0
    7.8978  -10.9303    0.0000 C   0  0  0  0  0  0  0  0  0  0  0  0
    9.0530  -10.3199    0.0000 O   0  0  0  0  0  0  0  0  0  0  0  0
    8.2116  -11.6096    0.0000 C   0  0  0  0  0  0  0  0  0  0  0  0
    7.1943  -10.9199    0.0000 N   0  0  0  0  0  0  0  0  0  0  0  0
    7.7771  -12.2234    0.0000 C   0  0  0  0  0  0  0  0  0  0  0  0
    7.0254  -12.2234    0.0000 C   0  0  0  0  0  0  0  0  0  0  0  0
    8.1495  -12.8682    0.0000 C   0  0  0  0  0  0  0  0  0  0  0  0
    6.6461  -12.8717    0.0000 C   0  0  0  0  0  0  0  0  0  0  0  0
    7.7806  -13.5199    0.0000 C   0  0  0  0  0  0  0  0  0  0  0  0
    7.0288  -13.5199    0.0000 C   0  0  0  0  0  0  0  0  0  0  0  0
    6.6564  -14.1717    0.0000 O   0  0  0  0  0  0  0  0  0  0  0  0
    5.9047  -14.1751    0.0000 C   0  0  0  0  0  0  0  0  0  0  0  0
  1  2  1  0  0  0  0
  3  1  1  1  0  0  0
  1  4  1  0  0  0  0
  2  5  2  0  0  0  0
  2  6  1  0  0  0  0
  3  7  1  0  0  0  0
  3  8  1  0  0  0  0
  4  9  2  0  0  0  0
  5 10  1  0  0  0  0
  6 11  2  0  0  0  0
  7 12  1  0  0  0  0
  7 13  1  6  0  0  0
  8 14  1  0  0  0  0
 10 15  2  0  0  0  0
 10 16  1  0  0  0  0
 12 17  1  6  0  0  0
 14 18  1  1  0  0  0
 16 19  1  0  0  0  0
 16 20  1  0  0  0  0
 17 21  1  0  0  0  0
 18 22  1  0  0  0  0
 21 23  1  0  0  0  0
 21 24  2  0  0  0  0
 23 25  1  0  0  0  0
 23 26  1  6  0  0  0
 25 27  1  0  0  0  0
 27 28  1  0  0  0  0
 27 29  2  0  0  0  0
 28 30  2  0  0  0  0
 29 31  1  0  0  0  0
 30 32  1  0  0  0  0
 32 33  1  0  0  0  0
 33 34  1  0  0  0  0
  5  9  1  0  0  0  0
 11 15  1  0  0  0  0
 12 14  1  0  0  0  0
 31 32  2  0  0  0  0
M  END
> <ID>
CHEBI:17939

> <NAME>
puromycin

> <DEFINITION>
An aminonucleoside antibiotic, derived from the Streptomyces alboniger bacterium, that causes premature chain termination during translation taking place in the ribosome.

> <STAR>
3

> <SECONDARY_ID>
CHEBI:8641; CHEBI:45182; CHEBI:14970; CHEBI:26402

> <SYNONYM>
Puromycin; Achromycin; 9-{3-deoxy-3-[(O-methyl-L-tyrosyl)amino]-beta-D-xylofuranosyl}-N,N-dimethyl-9H-purin-6-amine; 3'-[[(2S)-2-amino-3-(4-methoxyphenyl)-1-oxopropyl]amino]-3'-deoxy-N,N-diemthyladenosine; 3'-(L-alpha-Amino-p-methoxyhydrocinnamamido)-3'-deoxy-N,N-dimethyladenosine; (S)-3'-((2-Amino-3-(4-methoxyphenyl)-1-oxopropyl)amino)-3'-deoxy-N,N-dimethyladenosine

> <IUPAC_NAME>
3'-deoxy-N,N-dimethyl-3'-(O-methyl-L-tyrosinamido)adenosine

> <INN>
puromycinum; puromycine; puromycin; puromicina

> <FORMULA>
C22H29N7O5

> <MASS>
471.50984

> <MONOISOTOPIC_MASS>
471.22302

> <CHARGE>
0

> <SMILES>
COc1ccc(C[C@H](N)C(=O)N[C@@H]2[C@@H](CO)O[C@H]([C@@H]2O)n2cnc3c(ncnc23)N(C)C)cc1

> <INCHI>
InChI=1S/C22H29N7O5/c1-28(2)19-17-20(25-10-24-19)29(11-26-17)22-18(31)16(15(9-30)34-22)27-21(32)14(23)8-12-4-6-13(33-3)7-5-12/h4-7,10-11,14-16,18,22,30-31H,8-9,23H2,1-3H3,(H,27,32)/t14-,15+,16+,18+,22+/m0/s1

> <INCHIKEY>
RXWNCPJZOCPEPQ-NVWDDTSBSA-N

> <CAS_REGISTRY_NUMBER>
53-79-2

> <REAXYS_REGISTRY_NUMBER>
70234

> <CHEMIDPLUS>
53-79-2

> <DRUGBANK_ACCESSION>
DB08437

> <KEGG_COMPOUND_ACCESSION>
C01610

> <KEGG_DRUG_ACCESSION>
D05653

> <KNAPSACK_ACCESSION>
C00001507

> <LINCS_ACCESSION>
LSM-2788

> <WIKIPEDIA_ACCESSION>
Puromycin

> <PUBMED_CITATION>
13945541; 15843471; 18322149; 323854

$$$$
ChEBI


 16 16  0  0  1  0  0  0  0  0  1 V2000
   11.8856   -7.2021    0.0000 C   0  0  0  0  0  0  0  0  0  0  0  0
   11.2339   -6.8262    0.0000 O   0  0  0  0  0  0  0  0  0  0  0  0
   11.8856   -7.9504    0.0000 C   0  0  0  0  0  0  0  0  0  0  0  0
   12.5373   -6.8262    0.0000 O   0  0  0  0  0  0  0  0  0  0  0  0
   10.5821   -7.2021    0.0000 C   0  0  0  0  0  0  0  0  0  0  0  0
   11.2339   -8.3297    0.0000 C   0  0  0  0  0  0  0  0  0  0  0  0
   12.5373   -8.3297    0.0000 O   0  0  0  0  0  0  0  0  0  0  0  0
   13.2856   -6.8262    0.0000 P   0  0  0  0  0  0  0  0  0  0  0  0
   10.5821   -7.9504    0.0000 C   0  0  0  0  0  0  0  0  0  0  0  0
    9.9408   -6.8262    0.0000 C   0  0  0  0  0  0  0  0  0  0  0  0
   11.2339   -9.0779    0.0000 O   0  0  0  0  0  0  0  0  0  0  0  0
   14.0373   -6.8262    0.0000 O   0  0  0  0  0  0  0  0  0  0  0  0
   13.2856   -6.0779    0.0000 O   0  0  0  0  0  0  0  0  0  0  0  0
   13.2856   -7.5779    0.0000 O   0  0  0  0  0  0  0  0  0  0  0  0
    9.9408   -8.3297    0.0000 O   0  0  0  0  0  0  0  0  0  0  0  0
    9.3753   -7.2159    0.0000 O   0  0  0  0  0  0  0  0  0  0  0  0
  1  2  1  0  0  0  0
  1  3  1  0  0  0  0
  1  4  1  6  0  0  0
  2  5  1  0  0  0  0
  3  6  1  0  0  0  0
  3  7  1  6  0  0  0
  4  8  1  0  0  0  0
  5  9  1  0  0  0  0
  5 10  1  1  0  0  0
  6 11  1  1  0  0  0
  8 12  1  0  0  0  0
  8 13  1  0  0  0  0
  8 14  2  0  0  0  0
  9 15  1  1  0  0  0
 10 16  1  0  0  0  0
  6  9  1  0  0  0  0
M  END
> <ID>
CHEBI:17973

> <NAME>
alpha-D-galactose 1-phosphate

> <DEFINITION>
A D-galactopyranose 1-phosphate having α-configuration at the anomeric centre.

> <STAR>
3

> <SECONDARY_ID>
CHEBI:12306; CHEBI:22374; CHEBI:42878; CHEBI:10232; CHEBI:12305

> <SYNONYM>
Galactose-1-phosphate; alpha-D-Galactosyl phosphate; alpha-D-Galactose 1-phosphate; alpha-D-Galactopyranosyl phosphate; alpha-D-Galactopyranose, 1-(dihydrogen phosphate); alpha-D-Galactopyranose 1-phosphate; alpha-D-Gal-1-P; 1-O-phosphono-alpha-D-galactopyranose

> <IUPAC_NAME>
alpha-D-galactopyranose 1-(dihydrogen phosphate)

> <FORMULA>
C6H13O9P

> <MASS>
260.13578

> <MONOISOTOPIC_MASS>
260.02972

> <CHARGE>
0

> <SMILES>
OC[C@H]1O[C@H](OP(O)(O)=O)[C@H](O)[C@@H](O)[C@H]1O

> <INCHI>
InChI=1S/C6H13O9P/c7-1-2-3(8)4(9)5(10)6(14-2)15-16(11,12)13/h2-10H,1H2,(H2,11,12,13)/t2-,3+,4+,5-,6-/m1/s1

> <INCHIKEY>
HXXFSFRBOHSIMQ-FPRJBGLDSA-N

> <CAS_REGISTRY_NUMBER>
2255-14-3

> <REAXYS_REGISTRY_NUMBER>
87854

> <CHEMIDPLUS>
2255-14-3

> <DRUGBANK_ACCESSION>
DB02317

> <HMDB_ACCESSION>
HMDB0000645

> <KEGG_COMPOUND_ACCESSION>
C00446

> <KNAPSACK_ACCESSION>
C00007391

> <METACYC_ACCESSION>
GALACTOSE-1P

> <PDBECHEM_ACCESSION>
GL1

> <WIKIPEDIA_ACCESSION>
Galactose_1-phosphate

> <PUBMED_CITATION>
8154046

$$$$

Marvin  06030913092D          

 23 24  0  0  1  0            999 V2000
    9.2507   -5.5636    0.0000 C   0  0  1  0  0  0  0  0  0  0  0  0
    8.7658   -6.2311    0.0000 O   0  0  0  0  0  0  0  0  0  0  0  0
   10.0757   -5.5636    0.0000 C   0  0  2  0  0  0  0  0  0  0  0  0
   10.5606   -6.2311    0.0000 O   0  0  0  0  0  0  0  0  0  0  0  0
   10.3307   -4.7790    0.0000 C   0  0  2  0  0  0  0  0  0  0  0  0
    9.6632   -4.2941    0.0000 O   0  0  0  0  0  0  0  0  0  0  0  0
   11.1153   -4.5241    0.0000 C   0  0  0  0  0  0  0  0  0  0  0  0
   11.7284   -5.0761    0.0000 O   0  0  0  0  0  0  0  0  0  0  0  0
    8.9958   -4.7790    0.0000 C   0  0  2  0  0  0  0  0  0  0  0  0
    8.5833   -4.0645    0.0000 C   0  0  0  0  0  0  0  0  0  0  0  0
    8.9958   -3.3501    0.0000 O   0  0  0  0  0  0  0  0  0  0  0  0
    8.2813   -5.1915    0.0000 O   0  0  0  0  0  0  0  0  0  0  0  0
    7.5668   -4.7790    0.0000 C   0  0  2  0  0  0  0  0  0  0  0  0
    6.8524   -3.5415    0.0000 C   0  0  2  0  0  0  0  0  0  0  0  0
    6.1379   -3.9540    0.0000 C   0  0  2  0  0  0  0  0  0  0  0  0
    6.1379   -4.7790    0.0000 C   0  0  1  0  0  0  0  0  0  0  0  0
    6.8524   -5.1916    0.0000 C   0  0  1  0  0  0  0  0  0  0  0  0
    7.5668   -3.9540    0.0000 O   0  0  0  0  0  0  0  0  0  0  0  0
    6.8524   -6.0166    0.0000 O   0  0  0  0  0  0  0  0  0  0  0  0
    5.4234   -3.5415    0.0000 O   0  0  0  0  0  0  0  0  0  0  0  0
    6.8524   -2.7165    0.0000 C   0  0  0  0  0  0  0  0  0  0  0  0
    5.4234   -5.1915    0.0000 O   0  0  0  0  0  0  0  0  0  0  0  0
    6.1379   -2.3040    0.0000 O   0  0  0  0  0  0  0  0  0  0  0  0
  1  9  1  0  0  0  0
  6  9  1  0  0  0  0
  1  2  1  6  0  0  0
  3  1  1  0  0  0  0
  3  4  1  1  0  0  0
  5  3  1  0  0  0  0
  6  5  1  0  0  0  0
  5  7  1  6  0  0  0
  8  7  1  0  0  0  0
  9 10  1  1  0  0  0
 10 11  1  0  0  0  0
  9 12  1  6  0  0  0
 13 12  1  6  0  0  0
 17 13  1  0  0  0  0
 13 18  1  0  0  0  0
 14 15  1  0  0  0  0
 15 16  1  0  0  0  0
 16 17  1  0  0  0  0
 14 18  1  0  0  0  0
 17 19  1  6  0  0  0
 15 20  1  6  0  0  0
 14 21  1  1  0  0  0
 16 22  1  1  0  0  0
 21 23  1  0  0  0  0
M  END
> <ID>
CHEBI:17992

> <NAME>
sucrose

> <DEFINITION>
A glycosyl glycoside formed by glucose and fructose units joined by an acetal oxygen bridge from hemiacetal of glucose to the hemiketal of the fructose.

> <STAR>
3

> <SECONDARY_ID>
CHEBI:45795; CHEBI:9314; CHEBI:15128; CHEBI:26812

> <SYNONYM>
White sugar; table sugar; sucrose; SUCROSE; Sucrose; Sacharose; Saccharose; sacarosa; Cane sugar; beta-D-Fruf-(2<->1)-alpha-D-Glcp; 1-alpha-D-Glucopyranosyl-2-beta-D-fructofuranoside

> <IUPAC_NAME>
beta-D-fructofuranosyl alpha-D-glucopyranoside

> <FORMULA>
C12H22O11

> <MASS>
342.29650

> <MONOISOTOPIC_MASS>
342.11621

> <CHARGE>
0

> <SMILES>
OC[C@H]1O[C@H](O[C@]2(CO)O[C@H](CO)[C@@H](O)[C@@H]2O)[C@H](O)[C@@H](O)[C@@H]1O

> <INCHI>
InChI=1S/C12H22O11/c13-1-4-6(16)8(18)9(19)11(21-4)23-12(3-15)10(20)7(17)5(2-14)22-12/h4-11,13-20H,1-3H2/t4-,5-,6-,7-,8+,9-,10+,11-,12+/m1/s1

> <INCHIKEY>
CZMRCDWAGMRECN-UGDNZRGBSA-N

> <BEILSTEIN_REGISTRY_NUMBER>
90825

> <CAS_REGISTRY_NUMBER>
57-50-1

> <GMELIN_REGISTRY_NUMBER>
97695

> <REAXYS_REGISTRY_NUMBER>
90825

> <CHEMIDPLUS>
57-50-1

> <DRUGBANK_ACCESSION>
DB02772

> <HMDB_ACCESSION>
HMDB0000258

> <KEGG_COMPOUND_ACCESSION>
C00089

> <KEGG_DRUG_ACCESSION>
D06533

> <KEGG_GLYCAN_ACCESSION>
G00370

> <KNAPSACK_ACCESSION>
C00001151

> <METACYC_ACCESSION>
SUCROSE

> <NIST_CHEMISTRY_WEBBOOK>
57-50-1

> <PDBECHEM_ACCESSION>
SUC

> <WIKIPEDIA_ACCESSION>
Sucrose

> <PUBMED_CITATION>
11021636; 11093712; 11111003; 12065720; 12706980; 13508893; 15291457; 15660210; 15792978; 15845855; 16228482; 16304615; 16313996; 16525719; 16660545; 16663947; 16665852; 17233733; 17439666; 17597061; 18625236; 19199566; 19726178; 21703290; 21972845; 22085755; 22311778; 22404833; 22751876

$$$$

11280714592D 1   1.00000     0.00000     0

 18 20  0     1  0            999 V2000
   -0.6583   -4.2167    0.0000 C   0  0  0  0  0  0           0  0  0
   -0.6583   -4.8167    0.0000 C   0  0  0  0  0  0           0  0  0
   -0.1333   -5.1167    0.0000 C   0  0  1  0  0  0           0  0  0
    0.3875   -4.2042    0.0000 N   0  0  3  0  0  0           0  0  0
   -0.1375   -3.9042    0.0000 C   0  0  0  0  0  0           0  0  0
    0.3917   -4.8125    0.0000 C   0  0  0  0  0  0           0  0  0
   -1.1750   -3.9167    0.0000 C   0  0  0  0  0  0           0  0  0
   -0.1250   -5.7167    0.0000 C   0  0  0  0  0  0           0  0  0
   -1.1833   -3.3167    0.0000 N   0  0  0  0  0  0           0  0  0
   -1.1750   -5.1167    0.0000 C   0  0  0  0  0  0           0  0  0
    0.9042   -3.9042    0.0000 C   0  0  0  0  0  0           0  0  0
   -1.6958   -4.8167    0.0000 C   0  0  0  0  0  0           0  0  0
   -1.6958   -4.2167    0.0000 C   0  0  0  0  0  0           0  0  0
   -0.6458   -6.0167    0.0000 C   0  0  0  0  0  0           0  0  0
    0.3917   -6.0125    0.0000 C   0  0  0  0  0  0           0  0  0
    0.3917   -6.6042    0.0000 C   0  0  0  0  0  0           0  0  0
   -0.6458   -6.6167    0.0000 C   0  0  0  0  0  0           0  0  0
   -0.1250   -6.9167    0.0000 C   0  0  0  0  0  0           0  0  0
  2  1  1  0     0  0
  3  2  1  0     0  0
  4  5  1  0     0  0
  5  1  1  0     0  0
  6  4  1  0     0  0
  7  1  2  0     0  0
  3  8  1  1     0  0
  9  7  1  0     0  0
 10  2  2  0     0  0
 11  4  1  0     0  0
 12 13  2  0     0  0
 13  7  1  0     0  0
 14  8  2  0     0  0
 15  8  1  0     0  0
 16 15  2  0     0  0
 17 14  1  0     0  0
 18 16  1  0     0  0
 10 12  1  0     0  0
  6  3  1  0     0  0
 18 17  2  0     0  0
M  END
> <ID>
CHEBI:180847

> <NAME>
(S)-nomifensine

> <DEFINITION>
The S enantiomer of nomifensine.

> <STAR>
3

> <SYNONYM>
nomifensine (S); (S)-2-methyl-4-phenyl-1,2,3,4-tetrahydroisoquinolin-8-amine; (S)-1,2,3,4-tetrahydro-2-methyl-4-phenyl-8-isoquinolinamine; (-)-Nomiphensine; (-)-Nomifensine

> <IUPAC_NAME>
(4S)-2-methyl-4-phenyl-1,2,3,4-tetrahydroisoquinolin-8-amine

> <FORMULA>
C16H18N2

> <MASS>
238.32750

> <MONOISOTOPIC_MASS>
238.14700

> <CHARGE>
0

> <SMILES>
CN1C[C@@H](c2ccccc2)c2cccc(N)c2C1

> <INCHI>
InChI=1S/C16H18N2/c1-18-10-14(12-6-3-2-4-7-12)13-8-5-9-16(17)15(13)11-18/h2-9,14H,10-11,17H2,1H3/t14-/m0/s1

> <INCHIKEY>
XXPANQJNYNUNES-AWEZNQCLSA-N

> <BEILSTEIN_REGISTRY_NUMBER>
3593188

> <CAS_REGISTRY_NUMBER>
89664-18-6

> <REAXYS_REGISTRY_NUMBER>
3593188

> <CHEMIDPLUS>
89664-18-6

> <PUBMED_CITATION>
1502708

$$$$
ChEBI


 16 16  0  0  1  0  0  0  0  0  1 V2000
   12.5096  -17.6198    0.0000 C   0  0  0  0  0  0  0  0  0  0  0  0
   11.8545  -17.2474    0.0000 O   0  0  0  0  0  0  0  0  0  0  0  0
   12.5096  -18.3715    0.0000 C   0  0  0  0  0  0  0  0  0  0  0  0
   13.1579  -17.2474    0.0000 O   0  0  0  0  0  0  0  0  0  0  0  0
   11.2027  -17.6198    0.0000 C   0  0  0  0  0  0  0  0  0  0  0  0
   11.8545  -18.7474    0.0000 C   0  0  0  0  0  0  0  0  0  0  0  0
   13.1579  -18.7474    0.0000 O   0  0  0  0  0  0  0  0  0  0  0  0
   13.9062  -17.2439    0.0000 P   0  0  0  0  0  0  0  0  0  0  0  0
   11.2027  -18.3715    0.0000 C   0  0  0  0  0  0  0  0  0  0  0  0
   10.5614  -17.2474    0.0000 C   0  0  0  0  0  0  0  0  0  0  0  0
   11.8545  -19.4956    0.0000 O   0  0  0  0  0  0  0  0  0  0  0  0
   14.6579  -17.2439    0.0000 O   0  0  0  0  0  0  0  0  0  0  0  0
   13.9062  -16.4956    0.0000 O   0  0  0  0  0  0  0  0  0  0  0  0
   13.9062  -17.9956    0.0000 O   0  0  0  0  0  0  0  0  0  0  0  0
   10.5614  -18.7474    0.0000 O   0  0  0  0  0  0  0  0  0  0  0  0
    9.9855  -17.7301    0.0000 O   0  0  0  0  0  0  0  0  0  0  0  0
  1  2  1  0  0  0  0
  1  3  1  0  0  0  0
  1  4  1  6  0  0  0
  2  5  1  0  0  0  0
  3  6  1  0  0  0  0
  3  7  1  1  0  0  0
  4  8  1  0  0  0  0
  5  9  1  0  0  0  0
  5 10  1  1  0  0  0
  6 11  1  1  0  0  0
  8 12  1  0  0  0  0
  8 13  1  0  0  0  0
  8 14  2  0  0  0  0
  9 15  1  6  0  0  0
 10 16  1  0  0  0  0
  6  9  1  0  0  0  0
M  END
> <ID>
CHEBI:18205

> <NAME>
alpha-D-mannose 1-phosphate

> <DEFINITION>
A D-mannose 1-phosphate with an α-configuration at the anomeric position.

> <STAR>
3

> <SECONDARY_ID>
CHEBI:43854; CHEBI:12327; CHEBI:22404; CHEBI:10261

> <SYNONYM>
alpha-D-Mannose 1-phosphate; alpha-D-mannose 1-phosphate; alpha-D-Mannose 1-phosphate; 1-O-phosphono-alpha-D-mannopyranose

> <IUPAC_NAME>
alpha-D-mannopyranose 1-(dihydrogen phosphate)

> <FORMULA>
C6H13O9P

> <MASS>
260.13578

> <MONOISOTOPIC_MASS>
260.02972

> <CHARGE>
0

> <SMILES>
OC[C@H]1O[C@H](OP(O)(O)=O)[C@@H](O)[C@@H](O)[C@@H]1O

> <INCHI>
InChI=1S/C6H13O9P/c7-1-2-3(8)4(9)5(10)6(14-2)15-16(11,12)13/h2-10H,1H2,(H2,11,12,13)/t2-,3-,4+,5+,6-/m1/s1

> <INCHIKEY>
HXXFSFRBOHSIMQ-RWOPYEJCSA-N

> <REAXYS_REGISTRY_NUMBER>
87855

> <KEGG_COMPOUND_ACCESSION>
C03812

> <KNAPSACK_ACCESSION>
C00007389

> <METACYC_ACCESSION>
MANNOSE-1P

> <PDBECHEM_ACCESSION>
M1P

> <PUBMED_CITATION>
16540464; 9451026

$$$$

Marvin  11150718492D          

 12 11  0  0  1  0            999 V2000
   -0.7145    0.2292    0.0000 C   0  0  0  0  0  0  0  0  0  0  0  0
   -1.4289   -0.1833    0.0000 N   0  0  0  0  0  0  0  0  0  0  0  0
   -2.1434    0.2292    0.0000 C   0  0  0  0  0  0  0  0  0  0  0  0
    2.1434    0.2292    0.0000 C   0  0  0  0  0  0  0  0  0  0  0  0
    1.4289   -0.1833    0.0000 C   0  0  3  0  0  0  0  0  0  0  0  0
   -2.8579   -0.1833    0.0000 N   0  0  0  0  0  0  0  0  0  0  0  0
    0.7145    0.2292    0.0000 C   0  0  0  0  0  0  0  0  0  0  0  0
    0.0000   -0.1833    0.0000 C   0  0  0  0  0  0  0  0  0  0  0  0
    2.8579   -0.1833    0.0000 O   0  0  0  0  0  0  0  0  0  0  0  0
   -2.1434    1.0542    0.0000 O   0  0  0  0  0  0  0  0  0  0  0  0
    2.1434    1.0542    0.0000 O   0  0  0  0  0  0  0  0  0  0  0  0
    1.4289   -1.0083    0.0000 N   0  0  0  0  0  0  0  0  0  0  0  0
  2  1  1  0  0  0  0
  3  2  1  0  0  0  0
  3 10  2  0  0  0  0
  4 11  2  0  0  0  0
  4  5  1  0  0  0  0
  5 12  1  0  0  0  0
  3  6  1  0  0  0  0
  5  7  1  0  0  0  0
  1  8  1  0  0  0  0
  7  8  1  0  0  0  0
  9  4  1  0  0  0  0
M  END
> <ID>
CHEBI:18211

> <NAME>
citrulline

> <DEFINITION>
The parent compound of the citrulline class consisting of ornithine having a carbamoyl group at the N5-position.

> <STAR>
3

> <SECONDARY_ID>
CHEBI:3730; CHEBI:14002

> <SYNONYM>
N(5)-carbamoyl-DL-ornithine; N(5)-(aminocarbonyl)ornithine; N(5)-(aminocarbonyl)-DL-ornithine; dl-citrulline; DL-2-amino-5-ureidovaleric acid; Citrulline; Citrullin; citrulina; Cit; 2-Amino-5-uredovaleric acid

> <IUPAC_NAME>
N(5)-carbamoylornithine; citrulline; 2-amino-5-(carbamoylamino)pentanoic acid

> <FORMULA>
C6H13N3O3

> <MASS>
175.18584

> <MONOISOTOPIC_MASS>
175.09569

> <CHARGE>
0

> <SMILES>
NC(CCCNC(N)=O)C(O)=O

> <INCHI>
InChI=1S/C6H13N3O3/c7-4(5(10)11)2-1-3-9-6(8)12/h4H,1-3,7H2,(H,10,11)(H3,8,9,12)

> <INCHIKEY>
RHGKLRLOHDJJDR-UHFFFAOYSA-N

> <BEILSTEIN_REGISTRY_NUMBER>
2328251

> <CAS_REGISTRY_NUMBER>
627-77-0

> <REAXYS_REGISTRY_NUMBER>
1725417

> <CHEMIDPLUS>
627-77-0

> <NIST_CHEMISTRY_WEBBOOK>
627-77-0

> <WIKIPEDIA_ACCESSION>
Citrulline

> <PUBMED_CITATION>
11094453; 11113071; 11696417; 1378088; 16082501; 16708633; 17005970; 17513438; 17558653; 17693747; 18437289; 18440672; 18989563; 19144577; 21129371; 21482070

$$$$

Marvin  10151213312D          

 32 33  0  0  1  0            999 V2000
   14.1858   -6.2600    0.0000 C   0  0  2  0  0  0  0  0  0  0  0  0
   14.8932   -5.8513    0.0000 C   0  0  2  0  0  0  0  0  0  0  0  0
   14.8931   -5.0263    0.0000 C   0  0  1  0  0  0  0  0  0  0  0  0
   14.1785   -4.6139    0.0000 O   0  0  0  0  0  0  0  0  0  0  0  0
   13.4711   -5.0226    0.0000 C   0  0  1  0  0  0  0  0  0  0  0  0
   13.4712   -5.8476    0.0000 C   0  0  2  0  0  0  0  0  0  0  0  0
   11.6602   -7.7037    0.0000 C   0  0  2  0  0  0  0  0  0  0  0  0
   11.6602   -8.5287    0.0000 C   0  0  2  0  0  0  0  0  0  0  0  0
   12.3747   -8.9412    0.0000 C   0  0  1  0  0  0  0  0  0  0  0  0
   13.0892   -8.5287    0.0000 C   0  0  2  0  0  0  0  0  0  0  0  0
   13.0892   -7.7037    0.0000 C   0  0  1  0  0  0  0  0  0  0  0  0
   12.3747   -7.2912    0.0000 O   0  0  0  0  0  0  0  0  0  0  0  0
    9.8841   -8.5210    0.0000 O   0  0  0  0  0  0  0  0  0  0  0  0
   13.8147   -8.9477    0.0000 O   0  0  0  0  0  0  0  0  0  0  0  0
   12.3747   -9.7661    0.0000 O   0  0  0  0  0  0  0  0  0  0  0  0
   10.9458   -7.2912    0.0000 C   0  0  0  0  0  0  0  0  0  0  0  0
   14.1860   -7.3259    0.0000 O   0  0  0  0  0  0  0  0  0  0  0  0
   15.5976   -4.6191    0.0000 O   0  0  0  0  0  0  0  0  0  0  0  0
   12.7595   -4.6121    0.0000 C   0  0  0  0  0  0  0  0  0  0  0  0
   12.7600   -6.2585    0.0000 O   0  0  0  0  0  0  0  0  0  0  0  0
   15.5945   -6.2560    0.0000 N   0  0  0  0  0  0  0  0  0  0  0  0
   10.2413   -7.6981    0.0000 O   0  0  0  0  0  0  0  0  0  0  0  0
   10.9457   -6.4663    0.0000 O   0  0  0  0  0  0  0  0  0  0  0  0
   15.5947   -7.0848    0.0000 C   0  0  0  0  0  0  0  0  0  0  0  0
   16.2975   -7.4904    0.0000 C   0  0  0  0  0  0  0  0  0  0  0  0
   17.3505   -4.6534    0.0000 H   0  0  0  0  0  0  0  0  0  0  0  0
   12.0566   -5.8525    0.0000 S   0  0  0  0  0  0  0  0  0  0  0  0
   14.8686   -7.5043    0.0000 O   0  0  0  0  0  0  0  0  0  0  0  0
   11.3421   -5.4400    0.0000 O   0  0  0  0  0  0  0  0  0  0  0  0
   11.6506   -6.5562    0.0000 O   0  0  0  0  0  0  0  0  0  0  0  0
   12.4751   -5.1272    0.0000 O   0  0  0  0  0  0  0  0  0  0  0  0
   12.7595   -3.7871    0.0000 O   0  0  0  0  0  0  0  0  0  0  0  0
  1  2  1  0  0  0  0
  2  3  1  0  0  0  0
  3  4  1  0  0  0  0
  4  5  1  0  0  0  0
  5  6  1  0  0  0  0
  1  6  1  0  0  0  0
  7  8  1  0  0  0  0
  8  9  1  0  0  0  0
  9 10  1  0  0  0  0
 10 11  1  0  0  0  0
 11 12  1  0  0  0  0
  7 12  1  0  0  0  0
  8 13  1  6  0  0  0
 10 14  1  6  0  0  0
  9 15  1  1  0  0  0
  7 16  1  1  0  0  0
 11 17  1  1  0  0  0
  1 17  1  1  0  0  0
  3 18  1  1  0  0  0
  5 19  1  1  0  0  0
  6 20  1  1  0  0  0
  2 21  1  6  0  0  0
 16 22  1  0  0  0  0
 16 23  2  0  0  0  0
 21 24  1  0  0  0  0
 24 25  1  0  0  0  0
 18 26  1  0  0  0  0
 20 27  1  0  0  0  0
 24 28  2  0  0  0  0
 27 29  1  0  0  0  0
 27 30  2  0  0  0  0
 27 31  2  0  0  0  0
 19 32  1  0  0  0  0
M  STY  1   1 SRU
M  SCN  1   1 HT 
M  SAL   1 15   1   2   3   4   5   6   7   8   9  10  11  12  14  15  16
M  SAL   1 15  17  18  19  20  21  22  23  24  25  27  28  29  30  31  32
M  SDI   1  4   16.3275   -4.2208   16.3113   -5.0457
M  SDI   1  4   10.9271   -8.9380   10.9306   -8.1130
M  SBL   1  2  13  27
M  SMT   1 n
M  END
> <ID>
CHEBI:18250

> <NAME>
chondroitin 4'-sulfate

> <DEFINITION>
A chondroitin sulfate in which the site of sulfation is carbon 4 of the N-acetylgalactosamine (GalNAc) sugar.

> <STAR>
3

> <SECONDARY_ID>
CHEBI:13990; CHEBI:3674; CHEBI:23222

> <SYNONYM>
chondroitin sulfate type A; Chondroitin sulfate A; chondroitin A sulfate; Chondroitin 4-sulfate; chondroitin 4-(hydrogen sulfate); Chondroitin 4'-sulfate

> <FORMULA>
H2O(C14H21NO14S)n

> <CHARGE>
0

> <CAS_REGISTRY_NUMBER>
24967-93-9

> <REAXYS_REGISTRY_NUMBER>
8611783

> <CHEMIDPLUS>
24967-93-9

> <KEGG_COMPOUND_ACCESSION>
C00634

> <KEGG_DRUG_ACCESSION>
D00080

> <METACYC_ACCESSION>
Chondroitin-Sulfate-A

> <PUBMED_CITATION>
7538297

$$$$

Mrv0541 08221414162D          

 13 13  0  0  0  0            999 V2000
   10.2514    2.4172    0.0000 O   0  0  0  0  0  0  0  0  0  0  0  0
    9.5370    2.0047    0.0000 C   0  0  1  0  0  0  0  0  0  0  0  0
    9.5370    1.1797    0.0000 C   0  0  2  0  0  0  0  0  0  0  0  0
   10.2514    0.7673    0.0000 C   0  0  1  0  0  0  0  0  0  0  0  0
   10.9659    1.1797    0.0000 C   0  0  2  0  0  0  0  0  0  0  0  0
   10.9659    2.0047    0.0000 C   0  0  1  0  0  0  0  0  0  0  0  0
   11.6804    2.4172    0.0000 O   0  0  0  0  0  0  0  0  0  0  0  0
   11.6804    0.7673    0.0000 O   0  0  0  0  0  0  0  0  0  0  0  0
   10.2514   -0.0577    0.0000 O   0  0  0  0  0  0  0  0  0  0  0  0
    8.8225    2.4172    0.0000 C   0  0  0  0  0  0  0  0  0  0  0  0
    7.7336    2.4278    0.0000 O   0  0  0  0  0  0  0  0  0  0  0  0
   12.8450    2.3987    0.0000 H   0  0  0  0  0  0  0  0  0  0  0  0
    8.8225    0.7673    0.0000 O   0  0  0  0  0  0  0  0  0  0  0  0
  1  2  1  0  0  0  0
  1  6  1  0  0  0  0
  2  3  1  0  0  0  0
  2 10  1  1  0  0  0
  3  4  1  0  0  0  0
  4  5  1  0  0  0  0
  4  9  1  1  0  0  0
  5  6  1  0  0  0  0
  5  8  1  6  0  0  0
  6  7  1  6  0  0  0
  7 12  1  0  0  0  0
 10 11  1  0  0  0  0
  3 13  1  6  0  0  0
M  STY  1   1 SRU
M  SCN  1   1 HT 
M  SAL   1 11   7   6   1   8   5   9   4  13   3   2  10
M  SDI   1  4    8.3061    1.9266    8.3145    2.9166
M  SDI   1  4   12.3078    2.9110   12.3058    1.9210
M  SBL   1  2  11  12
M  SMT   1 n
M  END
> <ID>
CHEBI:18269

> <NAME>
(1->6)-alpha-D-glucan

> <DEFINITION>
An α-D-glucan in which the glucose units are connected by (1→6) linkages.

> <STAR>
3

> <SECONDARY_ID>
CHEBI:10818; CHEBI:4467; CHEBI:23650

> <SYNONYM>
1,6-alpha-D-Glucan; (1,6-alpha-D-glucosyl)(n); (1,6-alpha-D-glucosyl)n; (1,6-alpha-D-Glucosyl)n

> <FORMULA>
(C6H10O5)nH2O

> <CHARGE>
0

> <KEGG_COMPOUND_ACCESSION>
C00372

$$$$

Marvin  10151213272D          

 32 33  0  0  1  0            999 V2000
   14.1858   -6.2600    0.0000 C   0  0  2  0  0  0  0  0  0  0  0  0
   14.8932   -5.8513    0.0000 C   0  0  2  0  0  0  0  0  0  0  0  0
   14.8931   -5.0263    0.0000 C   0  0  1  0  0  0  0  0  0  0  0  0
   14.1785   -4.6139    0.0000 O   0  0  0  0  0  0  0  0  0  0  0  0
   13.4711   -5.0226    0.0000 C   0  0  1  0  0  0  0  0  0  0  0  0
   13.4712   -5.8476    0.0000 C   0  0  2  0  0  0  0  0  0  0  0  0
   11.6602   -7.7037    0.0000 C   0  0  2  0  0  0  0  0  0  0  0  0
   11.6602   -8.5287    0.0000 C   0  0  2  0  0  0  0  0  0  0  0  0
   12.3747   -8.9412    0.0000 C   0  0  1  0  0  0  0  0  0  0  0  0
   13.0892   -8.5287    0.0000 C   0  0  2  0  0  0  0  0  0  0  0  0
   13.0892   -7.7037    0.0000 C   0  0  1  0  0  0  0  0  0  0  0  0
   12.3747   -7.2912    0.0000 O   0  0  0  0  0  0  0  0  0  0  0  0
    9.8782   -8.5103    0.0000 O   0  0  0  0  0  0  0  0  0  0  0  0
   13.8147   -8.9477    0.0000 O   0  0  0  0  0  0  0  0  0  0  0  0
   12.3747   -9.7661    0.0000 O   0  0  0  0  0  0  0  0  0  0  0  0
   10.9458   -7.2912    0.0000 C   0  0  0  0  0  0  0  0  0  0  0  0
   14.1860   -7.3259    0.0000 O   0  0  0  0  0  0  0  0  0  0  0  0
   15.5976   -4.6191    0.0000 O   0  0  0  0  0  0  0  0  0  0  0  0
   12.7595   -4.6121    0.0000 C   0  0  0  0  0  0  0  0  0  0  0  0
   12.7600   -6.2585    0.0000 O   0  0  0  0  0  0  0  0  0  0  0  0
   15.5945   -6.2560    0.0000 N   0  0  0  0  0  0  0  0  0  0  0  0
   10.2413   -7.6981    0.0000 O   0  0  0  0  0  0  0  0  0  0  0  0
   10.9457   -6.4663    0.0000 O   0  0  0  0  0  0  0  0  0  0  0  0
   15.5947   -7.0848    0.0000 C   0  0  0  0  0  0  0  0  0  0  0  0
   16.2975   -7.4904    0.0000 C   0  0  0  0  0  0  0  0  0  0  0  0
   17.2998   -4.6208    0.0000 H   0  0  0  0  0  0  0  0  0  0  0  0
   14.8686   -7.5043    0.0000 O   0  0  0  0  0  0  0  0  0  0  0  0
   12.7595   -3.7871    0.0000 O   0  0  0  0  0  0  0  0  0  0  0  0
   12.0450   -3.3746    0.0000 S   0  0  0  0  0  0  0  0  0  0  0  0
   11.3306   -2.9621    0.0000 O   0  0  0  0  0  0  0  0  0  0  0  0
   12.4575   -2.6601    0.0000 O   0  0  0  0  0  0  0  0  0  0  0  0
   11.6325   -4.0891    0.0000 O   0  0  0  0  0  0  0  0  0  0  0  0
  1  2  1  0  0  0  0
  2  3  1  0  0  0  0
  3  4  1  0  0  0  0
  4  5  1  0  0  0  0
  5  6  1  0  0  0  0
  1  6  1  0  0  0  0
  7  8  1  0  0  0  0
  8  9  1  0  0  0  0
  9 10  1  0  0  0  0
 10 11  1  0  0  0  0
 11 12  1  0  0  0  0
  7 12  1  0  0  0  0
  8 13  1  6  0  0  0
 10 14  1  6  0  0  0
  9 15  1  1  0  0  0
  7 16  1  1  0  0  0
 11 17  1  1  0  0  0
  1 17  1  1  0  0  0
  3 18  1  1  0  0  0
  5 19  1  1  0  0  0
  6 20  1  1  0  0  0
  2 21  1  6  0  0  0
 16 22  1  0  0  0  0
 16 23  2  0  0  0  0
 21 24  1  0  0  0  0
 24 25  1  0  0  0  0
 18 26  1  0  0  0  0
 24 27  2  0  0  0  0
 19 28  1  0  0  0  0
 28 29  1  0  0  0  0
 29 30  1  0  0  0  0
 29 31  2  0  0  0  0
 29 32  2  0  0  0  0
M  STY  1   1 SRU
M  SCN  1   1 HT 
M  SAL   1 15   1   2   3   4   5   6   7   8   9  10  11  12  14  15  16
M  SAL   1 15  17  18  19  20  21  22  23  24  25  27  28  29  30  31  32
M  SDI   1  4   16.2989   -4.2073   16.2981   -5.0323
M  SDI   1  4   10.9222   -8.9336   10.9307   -8.1086
M  SBL   1  2  13  27
M  SMT   1 n
M  END
> <ID>
CHEBI:18296

> <NAME>
chondroitin 6'-sulfate

> <DEFINITION>
A chondroitin sulfate in which the site of sulfation is carbon 6 of the N-acetylgalactosamine (GalNAc) sugar.

> <STAR>
3

> <SECONDARY_ID>
CHEBI:3675; CHEBI:23223; CHEBI:13991

> <SYNONYM>
Chondroitin sulfate C; Chondroitin 6-sulfate; chondroitin 6-(hydrogen sulfate); Chondroitin 6'-sulfate; chondroitin 6'-sulfate

> <FORMULA>
H2O(C14H21NO14S)n

> <CAS_REGISTRY_NUMBER>
25322-46-7

> <REAXYS_REGISTRY_NUMBER>
9896922

> <CHEMIDPLUS>
25322-46-7

> <KEGG_COMPOUND_ACCESSION>
C00635

> <METACYC_ACCESSION>
Chondroitin-Sulfate-C

> <PUBMED_CITATION>
7538297; 8686873

$$$$

Marvin  01260611482D          

 16 16  0  0  0  0            999 V2000
    0.1875    1.9188    0.0000 C   0  0  2  0  0  0  0  0  0  0  0  0
   -0.5270    1.5063    0.0000 C   0  0  2  0  0  0  0  0  0  0  0  0
   -1.2414    1.9188    0.0000 O   0  0  0  0  0  0  0  0  0  0  0  0
   -0.5270    0.6812    0.0000 C   0  0  2  0  0  0  0  0  0  0  0  0
   -1.2414    0.2687    0.0000 O   0  0  0  0  0  0  0  0  0  0  0  0
    0.9020    0.6812    0.0000 C   0  0  1  0  0  0  0  0  0  0  0  0
    1.6164    0.2687    0.0000 O   0  0  0  0  0  0  0  0  0  0  0  0
    0.1875    0.2687    0.0000 C   0  0  2  0  0  0  0  0  0  0  0  0
    0.1875   -0.5563    0.0000 O   0  0  0  0  0  0  0  0  0  0  0  0
    0.9020    1.5063    0.0000 C   0  0  1  0  0  0  0  0  0  0  0  0
    1.6164    1.9188    0.0000 O   0  0  0  0  0  0  0  0  0  0  0  0
    0.1875    2.7438    0.0000 O   0  0  0  0  0  0  0  0  0  0  0  0
    0.9020    3.9813    0.0000 O   0  0  0  0  0  0  0  0  0  0  0  0
    0.9020    2.3313    0.0000 O   0  0  0  0  0  0  0  0  0  0  0  0
    0.9020    3.1563    0.0000 P   0  0  3  0  0  0  0  0  0  0  0  0
    1.7270    3.1563    0.0000 O   0  0  0  0  0  0  0  0  0  0  0  0
  1  2  1  0  0  0  0
  1 10  1  0  0  0  0
  2  4  1  0  0  0  0
  4  8  1  0  0  0  0
  8  6  1  0  0  0  0
  6 10  1  0  0  0  0
  1 12  1  1  0  0  0
  2  3  1  1  0  0  0
  4  5  1  1  0  0  0
  6  7  1  1  0  0  0
  8  9  1  6  0  0  0
 10 11  1  6  0  0  0
 12 15  1  0  0  0  0
 15 13  2  0  0  0  0
 15 14  1  0  0  0  0
 15 16  1  0  0  0  0
M  END
> <ID>
CHEBI:18297

> <NAME>
1D-myo-inositol 1-phosphate

> <DEFINITION>
An inositol having myo- configuration substituted at position 1 by a phosphate group.

> <STAR>
3

> <SECONDARY_ID>
CHEBI:12895; CHEBI:11354; CHEBI:43432; CHEBI:818; CHEBI:11220; CHEBI:12828; CHEBI:19207

> <SYNONYM>
Myoinositol 1-phosphate; Ins1P; Ins(1)P; Inositol 1-phosphate; Inositol 1-phosphate; I1P; D-myo-Inositol 1-phosphate; 1D-myo-Inositol 1-phosphate; 1D-myo-Inositol 1-monophosphate

> <IUPAC_NAME>
(1S,2R,3R,4S,5S,6R)-2,3,4,5,6-pentahydroxycyclohexyl dihydrogen phosphate

> <FORMULA>
C6H13O9P

> <MASS>
260.13578

> <MONOISOTOPIC_MASS>
260.02972

> <CHARGE>
0

> <SMILES>
O[C@H]1[C@H](O)[C@@H](O)[C@H](OP(O)(O)=O)[C@H](O)[C@@H]1O

> <INCHI>
InChI=1S/C6H13O9P/c7-1-2(8)4(10)6(5(11)3(1)9)15-16(12,13)14/h1-11H,(H2,12,13,14)/t1-,2-,3+,4-,5-,6-/m1/s1

> <INCHIKEY>
INAPMGSXUVUWAF-UOTPTPDRSA-N

> <BEILSTEIN_REGISTRY_NUMBER>
2056776

> <CAS_REGISTRY_NUMBER>
15421-51-9

> <REAXYS_REGISTRY_NUMBER>
2056776

> <CHEMIDPLUS>
15421-51-9

> <DRUGBANK_ACCESSION>
DB03542

> <HMDB_ACCESSION>
HMDB0000213

> <KEGG_COMPOUND_ACCESSION>
C01177

> <KNAPSACK_ACCESSION>
C00007483

> <METACYC_ACCESSION>
D-MYO-INOSITOL-1-MONOPHOSPHATE

> <PDBECHEM_ACCESSION>
IPD

> <PUBMED_CITATION>
17439666

$$$$

Marvin  03290616272D          

 24 25  0  0  1  0            999 V2000
    1.3047    0.3228    0.0000 C   0  0  0  0  0  0  0  0  0  0  0  0
    1.3047   -0.5022    0.0000 C   0  0  0  0  0  0  0  0  0  0  0  0
    0.5902   -0.9147    0.0000 C   0  0  0  0  0  0  0  0  0  0  0  0
   -0.1243   -0.5022    0.0000 C   0  0  0  0  0  0  0  0  0  0  0  0
   -0.1243    0.3228    0.0000 C   0  0  0  0  0  0  0  0  0  0  0  0
    0.5902    0.7353    0.0000 C   0  0  0  0  0  0  0  0  0  0  0  0
    3.4481    0.7353    0.0000 C   0  0  0  0  0  0  0  0  0  0  0  0
    3.4481    1.5603    0.0000 O   0  0  0  0  0  0  0  0  0  0  0  0
    2.7336    0.3228    0.0000 C   0  0  2  0  0  0  0  0  0  0  0  0
    2.0192    0.7353    0.0000 C   0  0  0  0  0  0  0  0  0  0  0  0
    2.7336   -0.5022    0.0000 N   0  0  0  0  0  0  0  0  0  0  0  0
    4.1626    0.3228    0.0000 O   0  0  0  0  0  0  0  0  0  0  0  0
    0.5902   -1.7397    0.0000 I   0  0  0  0  0  0  0  0  0  0  0  0
   -0.8387   -0.9147    0.0000 O   0  0  0  0  0  0  0  0  0  0  0  0
   -3.6966    0.7353    0.0000 O   0  0  0  0  0  0  0  0  0  0  0  0
   -3.6966   -0.9147    0.0000 I   0  0  0  0  0  0  0  0  0  0  0  0
   -1.5532   -0.5022    0.0000 C   0  0  0  0  0  0  0  0  0  0  0  0
   -2.9821   -0.5022    0.0000 C   0  0  0  0  0  0  0  0  0  0  0  0
   -2.2677   -0.9147    0.0000 C   0  0  0  0  0  0  0  0  0  0  0  0
   -1.5532    0.3228    0.0000 C   0  0  0  0  0  0  0  0  0  0  0  0
   -2.9821    0.3228    0.0000 C   0  0  0  0  0  0  0  0  0  0  0  0
   -0.8387    0.7353    0.0000 I   0  0  0  0  0  0  0  0  0  0  0  0
   -2.2677    0.7353    0.0000 C   0  0  0  0  0  0  0  0  0  0  0  0
   -2.2677    1.5603    0.0000 I   0  0  0  0  0  0  0  0  0  0  0  0
  9  7  1  0  0  0  0
  8  7  2  0  0  0  0
 12  7  1  0  0  0  0
 10  9  1  0  0  0  0
  9 11  1  1  0  0  0
  1 10  1  0  0  0  0
  4 14  1  0  0  0  0
  2  1  1  0  0  0  0
  6  1  2  0  0  0  0
  5  4  2  0  0  0  0
  3  4  1  0  0  0  0
  3  2  2  0  0  0  0
  5  6  1  0  0  0  0
 13  3  1  0  0  0  0
 14 17  1  0  0  0  0
 21 15  1  0  0  0  0
 18 16  1  0  0  0  0
 19 17  2  0  0  0  0
 18 19  1  0  0  0  0
 17 20  1  0  0  0  0
 20 23  2  0  0  0  0
 23 21  1  0  0  0  0
 18 21  2  0  0  0  0
  5 22  1  0  0  0  0
 23 24  1  0  0  0  0
M  END
> <ID>
CHEBI:18332

> <NAME>
L-thyroxine

> <DEFINITION>
The L-enantiomer of thyroxine.

> <STAR>
3

> <SECONDARY_ID>
CHEBI:7663; CHEBI:45848; CHEBI:13177; CHEBI:21406

> <SYNONYM>
T4; T4; O-(4-hydroxy-3,5-diiodophenyl)-3,5-diiodo-L-tyrosine; LT4; levothyroxine; Levothyroxin; L-Thyroxine; L-T4; 4-(4-hydroxy-3,5-diiodophenoxy)-3,5-diiodo-L-phenylalanine; 3,5,3',5'-tetraiodo-L-thyronine; 3,5,3',5'-TETRAIODO-L-THYRONINE; 3,3',5,5'-tetraiodo-L-thyronine

> <IUPAC_NAME>
L-thyroxine

> <FORMULA>
C15H11I4NO4

> <MASS>
776.87006

> <MONOISOTOPIC_MASS>
776.68669

> <CHARGE>
0

> <SMILES>
N[C@@H](Cc1cc(I)c(Oc2cc(I)c(O)c(I)c2)c(I)c1)C(O)=O

> <INCHI>
InChI=1S/C15H11I4NO4/c16-8-4-7(5-9(17)13(8)21)24-14-10(18)1-6(2-11(14)19)3-12(20)15(22)23/h1-2,4-5,12,21H,3,20H2,(H,22,23)/t12-/m0/s1

> <INCHIKEY>
XUIIKFGFIJCVMT-LBPRGKRZSA-N

> <BEILSTEIN_REGISTRY_NUMBER>
7002831

> <CAS_REGISTRY_NUMBER>
51-48-9

> <CHEMIDPLUS>
51-48-9

> <DRUGBANK_ACCESSION>
DB00451

> <KEGG_COMPOUND_ACCESSION>
C01829

> <KEGG_DRUG_ACCESSION>
D08125

> <LINCS_ACCESSION>
LSM-5447

> <PDBECHEM_ACCESSION>
T44

> <WIKIPEDIA_ACCESSION>
Levothyroxine

> <PUBMED_CITATION>
15206581; 18996189; 20483419; 2062236; 21035598; 24216002; 24548294; 24610609

$$$$

Marvin  03250822582D          

 16 16  0  0  0  0            999 V2000
    0.0000    0.8250    0.0000 C   0  0  0  0  0  0  0  0  0  0  0  0
    0.7145    0.4125    0.0000 C   0  0  0  0  0  0  0  0  0  0  0  0
    0.0000   -0.8250    0.0000 N   0  0  0  0  0  0  0  0  0  0  0  0
    0.7145   -0.4125    0.0000 C   0  0  0  0  0  0  0  0  0  0  0  0
   -0.7145    0.4125    0.0000 C   0  0  0  0  0  0  0  0  0  0  0  0
   -0.7145   -0.4125    0.0000 C   0  0  0  0  0  0  0  0  0  0  0  0
    1.4289    0.8250    0.0000 C   0  0  0  0  0  0  0  0  0  0  0  0
    2.1434    0.4125    0.0000 O   0  0  0  0  0  0  0  0  0  0  0  0
   -1.4289   -0.8250    0.0000 C   0  0  0  0  0  0  0  0  0  0  0  0
   -1.4289    0.8250    0.0000 O   0  0  0  0  0  0  0  0  0  0  0  0
    2.8579    1.6500    0.0000 O   0  0  0  0  0  0  0  0  0  0  0  0
    3.5724    0.4125    0.0000 O   0  0  0  0  0  0  0  0  0  0  0  0
    2.8579    0.8250    0.0000 P   0  0  3  0  0  0  0  0  0  0  0  0
    2.8579    0.0000    0.0000 O   0  0  0  0  0  0  0  0  0  0  0  0
    0.0000    1.6500    0.0000 C   0  0  0  0  0  0  0  0  0  0  0  0
    0.7145    2.0625    0.0000 N   0  0  0  0  0  0  0  0  0  0  0  0
 15  1  1  0  0  0  0
  1  2  2  0  0  0  0
  7  2  1  0  0  0  0
  3  4  2  0  0  0  0
  2  4  1  0  0  0  0
  5  1  1  0  0  0  0
 10  5  1  0  0  0  0
  6  5  2  0  0  0  0
  3  6  1  0  0  0  0
  9  6  1  0  0  0  0
  8  7  1  0  0  0  0
 13  8  1  0  0  0  0
 11 13  2  0  0  0  0
 12 13  1  0  0  0  0
 13 14  1  0  0  0  0
 15 16  1  0  0  0  0
M  END
> <ID>
CHEBI:18335

> <NAME>
pyridoxamine 5'-phosphate

> <DEFINITION>
A vitamin B6 phosphate that is the  phosphoric ester derivative of pyridoxamine.

> <STAR>
3

> <SECONDARY_ID>
CHEBI:26427; CHEBI:45037; CHEBI:14979; CHEBI:8670; CHEBI:14980

> <SYNONYM>
Pyridoxamine phosphate; Pyridoxamine 5-phosphoric acid; Pyridoxamine 5-phosphate; Pyridoxamine 5'-phosphoric acid; Pyridoxamine 5'-phosphate; pyridoxamine 5'-(dihydrogen phosphate); 4'-DEOXY-4'-AMINOPYRIDOXAL-5'-PHOSPHATE

> <IUPAC_NAME>
[4-(aminomethyl)-5-hydroxy-6-methylpyridin-3-yl]methyl dihydrogen phosphate

> <FORMULA>
C8H13N2O5P

> <MASS>
248.17306

> <MONOISOTOPIC_MASS>
248.05621

> <CHARGE>
0

> <SMILES>
Cc1ncc(COP(O)(O)=O)c(CN)c1O

> <INCHI>
InChI=1S/C8H13N2O5P/c1-5-8(11)7(2-9)6(3-10-5)4-15-16(12,13)14/h3,11H,2,4,9H2,1H3,(H2,12,13,14)

> <INCHIKEY>
ZMJGSOSNSPKHNH-UHFFFAOYSA-N

> <BEILSTEIN_REGISTRY_NUMBER>
233653

> <CAS_REGISTRY_NUMBER>
529-96-4

> <REAXYS_REGISTRY_NUMBER>
233653

> <CHEMIDPLUS>
529-96-4

> <HMDB_ACCESSION>
HMDB0001555

> <KEGG_COMPOUND_ACCESSION>
C00647

> <KNAPSACK_ACCESSION>
C00007506

> <PDBECHEM_ACCESSION>
PMP

> <PUBMED_CITATION>
1783639; 18491919; 22445054; 2580028

$$$$
ChEBI
  Marvin  09130511032D          

 10  9  0  0  1  0            999 V2000
    6.0753   -1.9002    0.0000 C   0  0  0  0  0  0  0  0  0  0  0  0
    5.6495   -2.6068    0.0000 C   0  0  1  0  0  0  0  0  0  0  0  0
    6.0548   -3.3292    0.0000 C   0  0  2  0  0  0  0  0  0  0  0  0
    5.6290   -4.0359    0.0000 C   0  0  2  0  0  0  0  0  0  0  0  0
    6.0343   -4.7583    0.0000 C   0  0  0  0  0  0  0  0  0  0  0  0
    5.6701   -1.1777    0.0000 O   0  0  0  0  0  0  0  0  0  0  0  0
    4.8246   -2.6018    0.0000 O   0  0  0  0  0  0  0  0  0  0  0  0
    6.8798   -3.3342    0.0000 O   0  0  0  0  0  0  0  0  0  0  0  0
    4.8040   -4.0309    0.0000 O   0  0  0  0  0  0  0  0  0  0  0  0
    6.8593   -4.7633    0.0000 O   0  0  0  0  0  0  0  0  0  0  0  0
  6  1  1  0  0  0  0
  2  1  1  0  0  0  0
  2  7  1  1  0  0  0
  3  2  1  0  0  0  0
  3  8  1  1  0  0  0
  4  3  1  0  0  0  0
  4  9  1  6  0  0  0
  5  4  1  0  0  0  0
 10  5  1  0  0  0  0
M  END
> <ID>
CHEBI:18403

> <NAME>
L-arabinitol

> <DEFINITION>
The L-enantiomer of arabinitol.

> <STAR>
3

> <SECONDARY_ID>
CHEBI:13073; CHEBI:6184; CHEBI:21234

> <SYNONYM>
L-Lyxitol; L-lyxitol; L-Arabitol; L-arabitol; L-Arabinol; L-arabinol; L-arabinitol; L-Arabinitol; L-arabinitol

> <IUPAC_NAME>
L-arabinitol

> <FORMULA>
C5H12O5

> <MASS>
152.14578

> <MONOISOTOPIC_MASS>
152.06847

> <CHARGE>
0

> <SMILES>
OC[C@H](O)C(O)[C@@H](O)CO

> <INCHI>
InChI=1S/C5H12O5/c6-1-3(8)5(10)4(9)2-7/h3-10H,1-2H2/t3-,4-/m0/s1

> <INCHIKEY>
HEBKCHPVOIAQTA-IMJSIDKUSA-N

> <CAS_REGISTRY_NUMBER>
7643-75-6

> <CHEMIDPLUS>
7643-75-6

> <HMDB_ACCESSION>
HMDB0001851

> <KEGG_COMPOUND_ACCESSION>
C00532

> <METACYC_ACCESSION>
L-ARABITOL

> <PUBMED_CITATION>
13525419; 17979222; 21742908; 22306314; 22609752; 22810910; 23287496; 23436125; 23713061; 24193245; 24643482; 25108762

$$$$

Marvin  02091016272D          

 23 24  0  0  1  0            999 V2000
    9.4031   -1.1580    0.0000 C   0  0  0  0  0  0  0  0  0  0  0  0
    9.4031   -1.9830    0.0000 C   0  0  1  0  0  0  0  0  0  0  0  0
    8.6886   -0.7455    0.0000 O   0  0  0  0  0  0  0  0  0  0  0  0
    8.6886   -2.3955    0.0000 C   0  0  2  0  0  0  0  0  0  0  0  0
    7.9741   -1.1580    0.0000 C   0  0  1  0  0  0  0  0  0  0  0  0
    7.9741   -1.9830    0.0000 C   0  0  1  0  0  0  0  0  0  0  0  0
   10.1175   -0.7455    0.0000 O   0  0  0  0  0  0  0  0  0  0  0  0
   10.1175   -2.3955    0.0000 O   0  0  0  0  0  0  0  0  0  0  0  0
    8.6886   -3.2205    0.0000 O   0  0  0  0  0  0  0  0  0  0  0  0
    7.2596   -2.3955    0.0000 O   0  0  0  0  0  0  0  0  0  0  0  0
    7.2596   -0.7455    0.0000 C   0  0  0  0  0  0  0  0  0  0  0  0
    6.5452   -1.1580    0.0000 O   0  0  0  0  0  0  0  0  0  0  0  0
    7.9741   -3.6330    0.0000 C   0  0  1  0  0  0  0  0  0  0  0  0
    7.9741   -4.4580    0.0000 C   0  0  1  0  0  0  0  0  0  0  0  0
    7.2596   -3.2205    0.0000 O   0  0  0  0  0  0  0  0  0  0  0  0
    7.2596   -4.8705    0.0000 C   0  0  2  0  0  0  0  0  0  0  0  0
    6.5451   -3.6330    0.0000 C   0  0  1  0  0  0  0  0  0  0  0  0
    6.5451   -4.4580    0.0000 C   0  0  1  0  0  0  0  0  0  0  0  0
    8.6886   -4.8705    0.0000 O   0  0  0  0  0  0  0  0  0  0  0  0
    7.2596   -5.6955    0.0000 O   0  0  0  0  0  0  0  0  0  0  0  0
    5.8306   -4.8705    0.0000 O   0  0  0  0  0  0  0  0  0  0  0  0
    5.8306   -3.2205    0.0000 C   0  0  0  0  0  0  0  0  0  0  0  0
    5.1162   -3.6330    0.0000 O   0  0  0  0  0  0  0  0  0  0  0  0
  1  2  1  0  0  0  0
  1  3  1  0  0  0  0
  2  4  1  0  0  0  0
  3  5  1  0  0  0  0
  4  6  1  0  0  0  0
  5  6  1  0  0  0  0
  1  7  1  0  0  0  0
  2  8  1  6  0  0  0
  4  9  1  1  0  0  0
  6 10  1  6  0  0  0
  5 11  1  1  0  0  0
 12 11  1  0  0  0  0
 13 14  1  0  0  0  0
 13 15  1  0  0  0  0
 14 16  1  0  0  0  0
 15 17  1  0  0  0  0
 16 18  1  0  0  0  0
 17 18  1  0  0  0  0
 13  9  1  1  0  0  0
 14 19  1  6  0  0  0
 16 20  1  1  0  0  0
 18 21  1  6  0  0  0
 17 22  1  1  0  0  0
 23 22  1  0  0  0  0
M  END
> <ID>
CHEBI:18411

> <NAME>
laminarabiose

> <DEFINITION>
A glycosylglucose consisting of D-glucose with undefined anomeric stereochemistry and a β-D-glucosyl residue attached at the 3-position.

> <STAR>
3

> <SECONDARY_ID>
CHEBI:6363; CHEBI:11747

> <SYNONYM>
Laminaribiose; Laminaribiose; Laminariaceae; Laminarabiose; betaGlcbeta(1-3)Glc; beta-D-Glup-(1->3)-D-Glu; beta-D-glucosyl-(1->3)-D-glucose; beta-D-glucosyl-(1->3)-D-glucose; beta-D-Glcp-(1->3)-D-Glcp; beta-D-Glc-(1->3)-D-Glc; 3-O-(beta-D-Glucopyranosyl)-D-glucose; 3-beta-D-Glucosyl-D-glucose

> <IUPAC_NAME>
beta-D-glucopyranosyl-(1->3)-D-glucopyranose

> <FORMULA>
C12H22O11

> <MASS>
342.29650

> <MONOISOTOPIC_MASS>
342.11621

> <CHARGE>
0

> <SMILES>
OC[C@H]1O[C@@H](O[C@@H]2[C@@H](O)C(O)O[C@H](CO)[C@H]2O)[C@H](O)[C@@H](O)[C@@H]1O

> <INCHI>
InChI=1S/C12H22O11/c13-1-3-5(15)7(17)8(18)12(22-3)23-10-6(16)4(2-14)21-11(20)9(10)19/h3-20H,1-2H2/t3-,4-,5-,6-,7+,8-,9-,10+,11?,12+/m1/s1

> <INCHIKEY>
QIGJYVCQYDKYDW-LCOYTZNXSA-N

> <BEILSTEIN_REGISTRY_NUMBER>
1292730

> <CAS_REGISTRY_NUMBER>
34980-39-7

> <CHEMIDPLUS>
34980-39-7

> <KEGG_COMPOUND_ACCESSION>
C02048

> <KEGG_GLYCAN_ACCESSION>
G00357

> <KNAPSACK_ACCESSION>
C00001137

> <PDBECHEM_ACCESSION>
LB2

$$$$

Marvin  01240615272D          

 15 16  0  0  0  0            999 V2000
    0.5000    1.9500    0.0000 C   0  0  2  0  0  0  0  0  0  0  0  0
   -0.2145    1.5375    0.0000 C   0  0  2  0  0  0  0  0  0  0  0  0
   -0.9289    1.9500    0.0000 O   0  0  0  0  0  0  0  0  0  0  0  0
   -0.2145    0.7125    0.0000 C   0  0  2  0  0  0  0  0  0  0  0  0
   -0.9289    0.3000    0.0000 O   0  0  0  0  0  0  0  0  0  0  0  0
    1.2145    0.7125    0.0000 C   0  0  1  0  0  0  0  0  0  0  0  0
    1.9289    0.3000    0.0000 O   0  0  0  0  0  0  0  0  0  0  0  0
    0.5000    0.3000    0.0000 C   0  0  2  0  0  0  0  0  0  0  0  0
    0.5000   -0.5250    0.0000 O   0  0  0  0  0  0  0  0  0  0  0  0
    1.2145    1.5375    0.0000 C   0  0  1  0  0  0  0  0  0  0  0  0
    1.9289    1.9500    0.0000 O   0  0  0  0  0  0  0  0  0  0  0  0
    0.5000    2.7750    0.0000 O   0  0  0  0  0  0  0  0  0  0  0  0
   -0.5574    3.6478    0.0000 O   0  0  0  0  0  0  0  0  0  0  0  0
   -0.5574    2.8228    0.0000 P   0  0  3  0  0  0  0  0  0  0  0  0
   -1.3824    2.8228    0.0000 O   0  0  0  0  0  0  0  0  0  0  0  0
  1  2  1  0  0  0  0
  1 10  1  0  0  0  0
  2  4  1  0  0  0  0
  4  8  1  0  0  0  0
  8  6  1  0  0  0  0
  6 10  1  0  0  0  0
  1 12  1  1  0  0  0
  2  3  1  1  0  0  0
  4  5  1  1  0  0  0
  6  7  1  1  0  0  0
  8  9  1  6  0  0  0
 10 11  1  6  0  0  0
 12 14  1  0  0  0  0
 14  3  1  0  0  0  0
 14 13  2  0  0  0  0
 14 15  1  0  0  0  0
M  END
> <ID>
CHEBI:18426

> <NAME>
1D-myo-inositol 1,2-cyclic phosphate

> <DEFINITION>
A  myo-inositol cyclic phosphate that is the 1,2-cyclic phosphate derivative of 1D-myo-inositol.

> <STAR>
3

> <SECONDARY_ID>
CHEBI:19186; CHEBI:11358; CHEBI:11221; CHEBI:12891; CHEBI:4274

> <SYNONYM>
myo-inositol 1,2-cyclic phosphate; D-myo-Inositol 1,2-cyclic phosphate; 1D-myo-Inositol 1,2-cyclic phosphate

> <IUPAC_NAME>
1D-myo-inositol 1,2-(hydrogen phosphate)

> <FORMULA>
C6H11O8P

> <MASS>
242.12050

> <MONOISOTOPIC_MASS>
242.01915

> <CHARGE>
0

> <SMILES>
O[C@H]1[C@H](O)[C@@H](O)[C@H]2OP(O)(=O)O[C@H]2[C@@H]1O

> <INCHI>
InChI=1S/C6H11O8P/c7-1-2(8)4(10)6-5(3(1)9)13-15(11,12)14-6/h1-10H,(H,11,12)/t1-,2-,3+,4+,5-,6+/m0/s1

> <INCHIKEY>
SXHMVNXROAUURW-FTYOSCRSSA-N

> <CAS_REGISTRY_NUMBER>
43119-57-9

> <REAXYS_REGISTRY_NUMBER>
3208785

> <KEGG_COMPOUND_ACCESSION>
C04299

> <PUBMED_CITATION>
11417877; 2450138; 6860706; 7679286; 9214296

$$$$

Marvin  04270617182D          

  5  5  0  0  0  0            999 V2000
   -0.6674   -0.4849    0.0000 C   0  0  0  0  0  0  0  0  0  0  0  0
   -0.4125   -1.2695    0.0000 C   0  0  0  0  0  0  0  0  0  0  0  0
    0.4125   -1.2695    0.0000 C   0  0  0  0  0  0  0  0  0  0  0  0
    0.6673   -0.4849    0.0000 C   0  0  0  0  0  0  0  0  0  0  0  0
    0.0000    0.0000    0.0000 N   0  0  0  0  0  0  0  0  0  0  0  0
  5  1  1  0  0  0  0
  5  4  1  0  0  0  0
  1  2  2  0  0  0  0
  2  3  1  0  0  0  0
  3  4  2  0  0  0  0
M  END
> <ID>
CHEBI:19203

> <NAME>
1H-pyrrole

> <DEFINITION>
A tautomer of pyrrole that has the double bonds at positions 2 and 4.

> <STAR>
3

> <SYNONYM>
pyrrole; Pyrrol; monopyrrole; imidole; divinylenimine; divinyleneimine; 1H-pyrrole; 1-aza-2,4-cyclopentadiene

> <IUPAC_NAME>
1H-pyrrole

> <FORMULA>
C4H5N

> <MASS>
67.08924

> <MONOISOTOPIC_MASS>
67.04220

> <CHARGE>
0

> <SMILES>
c1cc[nH]c1

> <INCHI>
InChI=1S/C4H5N/c1-2-4-5-3-1/h1-5H

> <INCHIKEY>
KAESVJOAVNADME-UHFFFAOYSA-N

> <BEILSTEIN_REGISTRY_NUMBER>
1159

> <CAS_REGISTRY_NUMBER>
109-97-7

> <GMELIN_REGISTRY_NUMBER>
1705

> <CHEMIDPLUS>
109-97-7

> <NIST_CHEMISTRY_WEBBOOK>
109-97-7

> <PUBMED_CITATION>
1556177; 2917974

$$$$

Mrv0541 02261409092D          

  7  7  0  0  0  0            999 V2000
    1.8922   -1.0502    0.0000 O   0  0  0  0  0  0  0  0  0  0  0  0
    1.2248   -0.5652    0.0000 C   0  0  0  0  0  0  0  0  0  0  0  0
    1.4797    0.2194    0.0000 C   0  0  0  0  0  0  0  0  0  0  0  0
    2.3047    0.2194    0.0000 C   0  0  0  0  0  0  0  0  0  0  0  0
    2.5596   -0.5652    0.0000 C   0  0  0  0  0  0  0  0  0  0  0  0
    3.3565   -0.7787    0.0000 C   0  0  0  0  0  0  0  0  0  0  0  0
    3.5701   -1.5756    0.0000 O   0  0  0  0  0  0  0  0  0  0  0  0
  1  2  1  0  0  0  0
  1  5  1  0  0  0  0
  2  3  2  0  0  0  0
  3  4  1  0  0  0  0
  4  5  2  0  0  0  0
  5  6  1  0  0  0  0
  6  7  1  0  0  0  0
M  END
> <ID>
CHEBI:207496

> <NAME>
furfuryl alcohol

> <DEFINITION>
A furan bearing a hydroxymethyl substituent at the 2-position.

> <STAR>
3

> <SYNONYM>
Furylcarbinol; Furfuranol; Furfural alcohol; Furan-2-yl-methanol; alpha-furylcarbinol; 5-Hydroxymethylfuran; 2-hydroxymethylfurane; 2-Hydroxymethylfuran; 2-Furylmethanol; 2-Furylcarbinol; 2-Furfuryl alcohol; 2-Furanylmethanol; 2-Furanmethanol; 2-Furane-methanol; 2-Furancarbinol; (2-furyl)methanol

> <IUPAC_NAME>
furan-2-ylmethanol

> <FORMULA>
C5H6O2

> <MASS>
98.09990

> <MONOISOTOPIC_MASS>
98.03678

> <CHARGE>
0

> <SMILES>
OCc1ccco1

> <INCHI>
InChI=1S/C5H6O2/c6-4-5-2-1-3-7-5/h1-3,6H,4H2

> <INCHIKEY>
XPFVYQJUAUNWIW-UHFFFAOYSA-N

> <BEILSTEIN_REGISTRY_NUMBER>
106291

> <CAS_REGISTRY_NUMBER>
98-00-0

> <REAXYS_REGISTRY_NUMBER>
106291

> <CHEMIDPLUS>
98-00-0

> <HMDB_ACCESSION>
HMDB0013742

> <KEGG_COMPOUND_ACCESSION>
C20441

> <METACYC_ACCESSION>
CPD-14102

> <NIST_CHEMISTRY_WEBBOOK>
98-00-0

> <WIKIPEDIA_ACCESSION>
Furfuryl_alcohol

> <PUBMED_CITATION>
15081000; 22648683; 22785445; 23466497; 24215289; 2917974

$$$$

Marvin  01090814262D          

 11 11  0  0  1  0            999 V2000
    0.0000    0.8250    0.0000 O   0  0  0  0  0  0  0  0  0  0  0  0
   -0.7145    0.4125    0.0000 C   0  0  1  0  0  0  0  0  0  0  0  0
    0.7145    0.4125    0.0000 C   0  0  3  0  0  0  0  0  0  0  0  0
    0.7145   -0.4125    0.0000 C   0  0  1  0  0  0  0  0  0  0  0  0
    0.0000   -0.8250    0.0000 C   0  0  2  0  0  0  0  0  0  0  0  0
   -0.7145   -0.4125    0.0000 C   0  0  1  0  0  0  0  0  0  0  0  0
    1.4289    0.8250    0.0000 O   0  0  0  0  0  0  0  0  0  0  0  0
    1.4289   -0.8250    0.0000 O   0  0  0  0  0  0  0  0  0  0  0  0
    0.0000   -1.6500    0.0000 O   0  0  0  0  0  0  0  0  0  0  0  0
   -1.4289   -0.8250    0.0000 O   0  0  0  0  0  0  0  0  0  0  0  0
   -1.4290    0.8250    0.0000 C   0  0  0  0  0  0  0  0  0  0  0  0
  2  1  1  0  0  0  0
  3  1  1  0  0  0  0
  3  7  1  0  0  0  0
  3  4  1  0  0  0  0
  4  8  1  6  0  0  0
  4  5  1  0  0  0  0
  5  9  1  1  0  0  0
  5  6  1  0  0  0  0
  6  2  1  0  0  0  0
  6 10  1  1  0  0  0
  2 11  1  1  0  0  0
M  END
> <ID>
CHEBI:2179

> <NAME>
D-fucopyranose

> <DEFINITION>
The six-membered ring form of D-fucose.

> <STAR>
3

> <SYNONYM>
D-Fucose; D-fucose; 6-Deoxy-D-galactose

> <IUPAC_NAME>
D-fucopyranose; 6-deoxy-D-galactopyranose

> <FORMULA>
C6H12O5

> <MASS>
164.15648

> <MONOISOTOPIC_MASS>
164.06847

> <CHARGE>
0

> <SMILES>
C[C@H]1OC(O)[C@H](O)[C@@H](O)[C@H]1O

> <INCHI>
InChI=1S/C6H12O5/c1-2-3(7)4(8)5(9)6(10)11-2/h2-10H,1H3/t2-,3+,4+,5-,6?/m1/s1

> <INCHIKEY>
SHZGCJCMOBCMKK-SVZMEOIVSA-N

> <BEILSTEIN_REGISTRY_NUMBER>
1905881

> <CAS_REGISTRY_NUMBER>
3615-37-0

> <GMELIN_REGISTRY_NUMBER>
1972483

> <REAXYS_REGISTRY_NUMBER>
1905881

> <CHEMIDPLUS>
3615-37-0

> <HMDB_ACCESSION>
HMDB0029196

> <KEGG_COMPOUND_ACCESSION>
C01018

> <KNAPSACK_ACCESSION>
C00001118

> <METACYC_ACCESSION>
D-FUCOSE

> <PUBMED_CITATION>
19913595; 22159189; 23552326; 23942008; 9367758

$$$$

Marvin  01261110432D          

 11 11  0  0  1  0            999 V2000
    7.9917   -6.0824    0.0000 O   0  0  0  0  0  0  0  0  0  0  0  0
    7.2772   -6.4949    0.0000 C   0  0  2  0  0  0  0  0  0  0  0  0
    8.7062   -6.4949    0.0000 C   0  0  0  0  0  0  0  0  0  0  0  0
    8.7062   -7.3198    0.0000 C   0  0  2  0  0  0  0  0  0  0  0  0
    7.9917   -7.7323    0.0000 C   0  0  1  0  0  0  0  0  0  0  0  0
    7.2772   -7.3198    0.0000 C   0  0  2  0  0  0  0  0  0  0  0  0
    9.4205   -6.0824    0.0000 O   0  0  0  0  0  0  0  0  0  0  0  0
    9.4205   -7.7323    0.0000 O   0  0  0  0  0  0  0  0  0  0  0  0
    7.9917   -8.5573    0.0000 O   0  0  0  0  0  0  0  0  0  0  0  0
    6.5628   -7.7323    0.0000 O   0  0  0  0  0  0  0  0  0  0  0  0
    6.5627   -6.0824    0.0000 C   0  0  0  0  0  0  0  0  0  0  0  0
  2  1  1  0  0  0  0
  3  1  1  0  0  0  0
  3  7  1  0  0  0  0
  3  4  1  0  0  0  0
  4  8  1  1  0  0  0
  4  5  1  0  0  0  0
  5  9  1  6  0  0  0
  5  6  1  0  0  0  0
  6  2  1  0  0  0  0
  6 10  1  6  0  0  0
  2 11  1  6  0  0  0
M  END
> <ID>
CHEBI:2181

> <NAME>
L-fucopyranose

> <DEFINITION>
The pyranose form of L-fucose.

> <STAR>
3

> <SYNONYM>
L-Fucose; L-fucose; 6-Deoxy-L-galactose

> <IUPAC_NAME>
L-fucopyranose; 6-deoxy-L-galactopyranose

> <FORMULA>
C6H12O5

> <MASS>
164.15650

> <MONOISOTOPIC_MASS>
164.06847

> <CHARGE>
0

> <SMILES>
C[C@@H]1OC(O)[C@@H](O)[C@H](O)[C@@H]1O

> <INCHI>
InChI=1S/C6H12O5/c1-2-3(7)4(8)5(9)6(10)11-2/h2-10H,1H3/t2-,3+,4+,5-,6?/m0/s1

> <INCHIKEY>
SHZGCJCMOBCMKK-DHVFOXMCSA-N

> <BEILSTEIN_REGISTRY_NUMBER>
1905878

> <CAS_REGISTRY_NUMBER>
2438-80-4

> <GMELIN_REGISTRY_NUMBER>
863814

> <REAXYS_REGISTRY_NUMBER>
1905878

> <KEGG_COMPOUND_ACCESSION>
C01019

> <PUBMED_CITATION>
19913595; 25728407; 27145048; 27782805; 7688662

$$$$

Marvin  05220817422D          

 16 15  0  0  0  0            999 V2000
    4.5937    2.4187    0.0000 O   0  0  0  0  0  0  0  0  0  0  0  0
    5.3082    1.1812    0.0000 O   0  0  0  0  0  0  0  0  0  0  0  0
    4.5937    1.5937    0.0000 C   0  0  0  0  0  0  0  0  0  0  0  0
    3.1648    1.5937    0.0000 C   0  0  0  0  0  0  0  0  0  0  0  0
    2.4503    1.1812    0.0000 C   0  0  0  0  0  0  0  0  0  0  0  0
    1.7359    1.5937    0.0000 C   0  0  0  0  0  0  0  0  0  0  0  0
    3.8793    1.1812    0.0000 C   0  0  2  0  0  0  0  0  0  0  0  0
    3.8793    0.3562    0.0000 N   0  0  0  0  0  0  0  0  0  0  0  0
    1.0214    1.1812    0.0000 C   0  0  0  0  0  0  0  0  0  0  0  0
    0.3069    1.5937    0.0000 N   0  0  0  0  0  0  0  0  0  0  0  0
   -0.4075    1.1812    0.0000 C   0  0  0  0  0  0  0  0  0  0  0  0
   -1.1220    2.4187    0.0000 O   0  0  0  0  0  0  0  0  0  0  0  0
   -1.1220    1.5937    0.0000 C   0  0  2  0  0  0  0  0  0  0  0  0
   -1.8365    1.1812    0.0000 C   0  0  0  0  0  0  0  0  0  0  0  0
   -2.5510    1.5937    0.0000 C   0  0  0  0  0  0  0  0  0  0  0  0
   -3.2654    1.1812    0.0000 N   0  0  0  0  0  0  0  0  0  0  0  0
  3  1  2  0  0  0  0
  3  2  1  0  0  0  0
  3  7  1  0  0  0  0
  7  4  1  0  0  0  0
  4  5  1  0  0  0  0
  5  6  1  0  0  0  0
  6  9  1  0  0  0  0
  7  8  1  1  0  0  0
  9 10  1  0  0  0  0
 10 11  1  0  0  0  0
 11 13  1  0  0  0  0
 13 12  1  1  0  0  0
 13 14  1  0  0  0  0
 14 15  1  0  0  0  0
 15 16  1  0  0  0  0
M  END
> <ID>
CHEBI:21858

> <NAME>
hypusine

> <DEFINITION>
An L-lysine derivative that is L-lysine bearing a (2R)-4-amino-2-hydroxybutyl substituent at position N6.

> <STAR>
3

> <SYNONYM>
(+)-hypusine

> <IUPAC_NAME>
N(6)-[(2R)-4-amino-2-hydroxybutyl]-L-lysine

> <FORMULA>
C10H23N3O3

> <MASS>
233.30804

> <MONOISOTOPIC_MASS>
233.17394

> <CHARGE>
0

> <SMILES>
NCC[C@@H](O)CNCCCC[C@H](N)C(O)=O

> <INCHI>
InChI=1S/C10H23N3O3/c11-5-4-8(14)7-13-6-2-1-3-9(12)10(15)16/h8-9,13-14H,1-7,11-12H2,(H,15,16)/t8-,9+/m1/s1

> <INCHIKEY>
BZUIJMCJNWUGKQ-BDAKNGLRSA-N

> <CAS_REGISTRY_NUMBER>
34994-11-1

> <CHEMIDPLUS>
34994-11-1

> <PDBECHEM_ACCESSION>
5CT

> <PUBMED_CITATION>
17476569; 19379712; 21360085; 3114263; 6434336; 8347280; 8820901; 9748364

$$$$

Marvin  01191117002D          

 21 21  0  0  1  0            999 V2000
    3.2153   -3.1067    0.0000 C   0  0  0  0  0  0  0  0  0  0  0  0
    3.6278   -1.8373    0.0000 S   0  0  0  0  0  0  0  0  0  0  0  0
    2.5479   -2.6218    0.0000 C   0  0  0  0  0  0  0  0  0  0  0  0
    2.8028   -1.8373    0.0000 S   0  0  0  0  0  0  0  0  0  0  0  0
    3.8827   -2.6218    0.0000 C   0  0  0  0  0  0  0  0  0  0  0  0
    4.5972   -3.0344    0.0000 C   0  0  0  0  0  0  0  0  0  0  0  0
    5.3116   -2.6218    0.0000 C   0  0  0  0  0  0  0  0  0  0  0  0
    6.0262   -3.0344    0.0000 C   0  0  0  0  0  0  0  0  0  0  0  0
    6.7405   -2.6218    0.0000 C   0  0  0  0  0  0  0  0  0  0  0  0
    7.4550   -3.0344    0.0000 C   0  0  0  0  0  0  0  0  0  0  0  0
    7.4550   -3.8594    0.0000 O   0  0  0  0  0  0  0  0  0  0  0  0
    8.1695   -2.6218    0.0000 N   0  0  0  0  0  0  0  0  0  0  0  0
   12.4561   -2.6218    0.0000 C   0  0  0  0  0  0  0  0  0  0  0  0
   12.4561   -1.7969    0.0000 O   0  0  0  0  0  0  0  0  0  0  0  0
   11.7416   -3.0344    0.0000 C   0  0  1  0  0  0  0  0  0  0  0  0
   11.7416   -3.8592    0.0000 N   0  0  0  0  0  0  0  0  0  0  0  0
    8.8839   -3.0344    0.0000 C   0  0  0  0  0  0  0  0  0  0  0  0
   11.0271   -2.6218    0.0000 C   0  0  0  0  0  0  0  0  0  0  0  0
    9.5982   -2.6218    0.0000 C   0  0  0  0  0  0  0  0  0  0  0  0
   10.3127   -3.0344    0.0000 C   0  0  0  0  0  0  0  0  0  0  0  0
   13.1705   -3.0344    0.0000 O   0  0  0  0  0  0  0  0  0  0  0  0
  5  1  1  0  0  0  0
  5  2  1  0  0  0  0
  1  3  1  0  0  0  0
  2  4  1  0  0  0  0
  3  4  1  0  0  0  0
  5  6  1  0  0  0  0
  6  7  1  0  0  0  0
  7  8  1  0  0  0  0
  8  9  1  0  0  0  0
  9 10  1  0  0  0  0
 10 12  1  0  0  0  0
 10 11  2  0  0  0  0
 13 14  2  0  0  0  0
 13 15  1  0  0  0  0
 15 16  1  1  0  0  0
 15 18  1  0  0  0  0
 12 17  1  0  0  0  0
 17 19  1  0  0  0  0
 18 20  1  0  0  0  0
 19 20  1  0  0  0  0
 21 13  1  0  0  0  0
M  END
> <ID>
CHEBI:21887

> <NAME>
N(6)-lipoyl-L-lysine

> <DEFINITION>
An N6-acyl-L-lysine where the N6-acyl group is lipoyl.

> <STAR>
3

> <SYNONYM>
N(6)-6(R,S)-lipoyl-L-lysine

> <IUPAC_NAME>
N(6)-[5-(1,2-dithiolan-3-yl)pentanoyl]-L-lysine

> <FORMULA>
C14H26N2O3S2

> <MASS>
334.49800

> <MONOISOTOPIC_MASS>
334.13849

> <CHARGE>
0

> <SMILES>
N[C@@H](CCCCNC(=O)CCCCC1CCSS1)C(O)=O

> <INCHI>
InChI=1S/C14H26N2O3S2/c15-12(14(18)19)6-3-4-9-16-13(17)7-2-1-5-11-8-10-20-21-11/h11-12H,1-10,15H2,(H,16,17)(H,18,19)/t11?,12-/m0/s1

> <INCHIKEY>
COTIXRRJLCSLLS-KIYNQFGBSA-N

> <REAXYS_REGISTRY_NUMBER>
33310

> <PUBMED_CITATION>
7548757

$$$$

Marvin  09221009292D          

 20 22  0  0  1  0            999 V2000
    0.9372   -0.2267    0.0000 N   0  0  0  0  0  0  0  0  0  0  0  0
    0.9372   -1.0517    0.0000 C   0  0  0  0  0  0  0  0  0  0  0  0
    0.2227   -1.4642    0.0000 N   0  0  0  0  0  0  0  0  0  0  0  0
    0.2226   -2.2892    0.0000 C   0  0  0  0  0  0  0  0  0  0  0  0
    0.9371   -2.7017    0.0000 N   0  0  0  0  0  0  0  0  0  0  0  0
    1.6516   -2.2892    0.0000 C   0  0  0  0  0  0  0  0  0  0  0  0
    1.6516   -1.4642    0.0000 C   0  0  0  0  0  0  0  0  0  0  0  0
    2.4362   -1.2093    0.0000 N   0  0  0  0  0  0  0  0  0  0  0  0
    2.9212   -1.8768    0.0000 C   0  0  0  0  0  0  0  0  0  0  0  0
    2.4362   -2.5442    0.0000 N   0  0  0  0  0  0  0  0  0  0  0  0
    2.6912   -3.3290    0.0000 C   0  0  2  0  0  0  0  0  0  0  0  0
    2.2062   -3.9963    0.0000 O   0  0  0  0  0  0  0  0  0  0  0  0
    2.6911   -4.6639    0.0000 C   0  0  2  0  0  0  0  0  0  0  0  0
    2.4361   -5.4485    0.0000 C   0  0  0  0  0  0  0  0  0  0  0  0
    2.9882   -6.0616    0.0000 O   0  0  0  0  0  0  0  0  0  0  0  0
    3.4757   -4.4089    0.0000 C   0  0  1  0  0  0  0  0  0  0  0  0
    4.1432   -4.8939    0.0000 O   0  0  0  0  0  0  0  0  0  0  0  0
    3.4758   -3.5839    0.0000 C   0  0  1  0  0  0  0  0  0  0  0  0
    4.1432   -3.0990    0.0000 O   0  0  0  0  0  0  0  0  0  0  0  0
    1.6517    0.1858    0.0000 C   0  0  0  0  0  0  0  0  0  0  0  0
  1  2  1  0  0  0  0
  2  3  1  0  0  0  0
  2  7  2  0  0  0  0
  3  4  2  0  0  0  0
  4  5  1  0  0  0  0
  5  6  2  0  0  0  0
  6  7  1  0  0  0  0
  6 10  1  0  0  0  0
  7  8  1  0  0  0  0
  8  9  2  0  0  0  0
  9 10  1  0  0  0  0
 11 10  1  1  0  0  0
 11 12  1  0  0  0  0
 11 18  1  0  0  0  0
 12 13  1  0  0  0  0
 13 14  1  1  0  0  0
 13 16  1  0  0  0  0
 14 15  1  0  0  0  0
 16 17  1  6  0  0  0
 16 18  1  0  0  0  0
 18 19  1  6  0  0  0
  1 20  1  0  0  0  0
M  END
> <ID>
CHEBI:21891

> <NAME>
N(6)-methyladenosine

> <DEFINITION>
A methyladenosine compound with one methyl group attached to N6 of the adenine nucleobase.

> <STAR>
3

> <SECONDARY_ID>
CHEBI:424380

> <SYNONYM>
N(6)-monomethyladenosine; N(6)-Methyladenosine; m6a; 6-Methylaminopurinosine; 6-Methylaminopurine riboside; 6-Methylaminopurine ribonucleoside; 6-Methylaminopurine D-riboside; 6-Methyladenosine; (2R,3S,4R,5R)-2-Hydroxymethyl-5-(6-methylamino-purin-9-yl)-tetrahydro-furan-3,4-diol

> <IUPAC_NAME>
N-methyladenosine

> <FORMULA>
C11H15N5O4

> <MASS>
281.26790

> <MONOISOTOPIC_MASS>
281.11240

> <CHARGE>
0

> <SMILES>
CNc1ncnc2n(cnc12)[C@@H]1O[C@H](CO)[C@@H](O)[C@H]1O

> <INCHI>
InChI=1S/C11H15N5O4/c1-12-9-6-10(14-3-13-9)16(4-15-6)11-8(19)7(18)5(2-17)20-11/h3-5,7-8,11,17-19H,2H2,1H3,(H,12,13,14)/t5-,7-,8-,11-/m1/s1

> <INCHIKEY>
VQAYFKKCNSOZKM-IOSLPCCCSA-N

> <BEILSTEIN_REGISTRY_NUMBER>
42872

> <CAS_REGISTRY_NUMBER>
1867-73-8

> <REAXYS_REGISTRY_NUMBER>
42872

> <CHEMIDPLUS>
1867-73-8

> <LINCS_ACCESSION>
LSM-3835

> <PUBMED_CITATION>
26046440; 26323656; 26748145; 26958595; 27396363; 27467725; 28349455; 323854

$$$$

Ketcher 11211915172D 1   1.00000     0.00000     0

 19 20  0     1  0            999 V2000
   18.7029  -12.1208    0.0000 N   0  0  0  0  0  0  0  0  0  0  0  0
   18.7029  -11.1206    0.0000 C   0  0  0  0  0  0  0  0  0  0  0  0
   19.5653  -12.6390    0.0000 C   0  0  0  0  0  0  0  0  0  0  0  0
   17.7029  -12.1208    0.0000 C   0  0  0  0  0  0  0  0  0  0  0  0
   19.5653  -10.6207    0.0000 S   0  0  0  0  0  0  0  0  0  0  0  0
   20.4415  -12.1296    0.0000 C   0  0  0  0  0  0  0  0  0  0  0  0
   19.5561  -13.6389    0.0000 C   0  0  0  0  0  0  0  0  0  0  0  0
   16.9965  -12.8225    0.0000 O   0  0  0  0  0  0  0  0  0  0  0  0
   20.4415  -11.1206    0.0000 C   0  0  0  0  0  0  0  0  0  0  0  0
   21.3038  -12.6253    0.0000 C   0  0  0  0  0  0  0  0  0  0  0  0
   18.6892  -14.1252    0.0000 O   0  0  0  0  0  0  0  0  0  0  0  0
   20.4186  -14.1390    0.0000 O   0  0  0  0  0  0  0  0  0  0  0  0
   22.1708  -12.1252    0.0000 O   0  0  0  0  0  0  0  0  0  0  0  0
   23.0333  -12.6253    0.0000 C   0  0  0  0  0  0  0  0  0  0  0  0
   23.8957  -12.1252    0.0000 C   0  0  0  0  0  0  0  0  0  0  0  0
   23.0380  -13.6206    0.0000 O   0  0  0  0  0  0  0  0  0  0  0  0
   18.7029  -10.1251    0.0000 H   0  0  0  0  0  0  0  0  0  0  0  0
   17.7029  -11.1206    0.0000 C   0  0  0  0  0  0  0  0  0  0  0  0
   16.8381  -10.6213    0.0000 N   0  0  0  0  0  0  0  0  0  0  0  0
  1  2  1  0     0  0
  1  3  1  0     0  0
  1  4  1  0     0  0
  2 18  1  0     0  0
  2  5  1  0     0  0
  3  6  2  0     0  0
  3  7  1  0     0  0
  4  8  2  0     0  0
  5  9  1  0     0  0
  6 10  1  0     0  0
  7 11  1  0     0  0
  7 12  2  0     0  0
 10 13  1  0     0  0
 13 14  1  0     0  0
 14 15  1  0     0  0
 14 16  2  0     0  0
  4 18  1  0     0  0
  6  9  1  0     0  0
  2 17  1  6     0  0
 18 19  1  1     0  0
M  END
> <ID>
CHEBI:2255

> <NAME>
7beta-aminocephalosporanic acid

> <DEFINITION>
The  α,β-unsaturated monocarboxylic acid that is the active nucleus for the synthesis of cephalosporins and intermediates.

> <STAR>
3

> <SYNONYM>
7-Aminocephalosporinic acid; 7-Aminocephalosporanic acid; 7-ACA; (7R)-7-Aminocephalosporanate

> <IUPAC_NAME>
3-acetoxymethyl-7beta-amino-3,4-didehydrocepham-4-carboxylic acid; (6R,7R)-3-(acetoxymethyl)-7-amino-8-oxo-5-thia-1-azabicyclo[4.2.0]oct-2-ene-2-carboxylic acid

> <FORMULA>
C10H12N2O5S

> <MASS>
272.280

> <MONOISOTOPIC_MASS>
272.04669

> <CHARGE>
0

> <SMILES>
N12[C@@]([C@@H](C1=O)N)(SCC(=C2C(O)=O)COC(C)=O)[H]

> <INCHI>
InChI=1S/C10H12N2O5S/c1-4(13)17-2-5-3-18-9-6(11)8(14)12(9)7(5)10(15)16/h6,9H,2-3,11H2,1H3,(H,15,16)/t6-,9-/m1/s1

> <INCHIKEY>
HSHGZXNAXBPPDL-HZGVNTEJSA-N

> <BEILSTEIN_REGISTRY_NUMBER>
8919572

> <CAS_REGISTRY_NUMBER>
957-68-6

> <REAXYS_REGISTRY_NUMBER>
622638

> <CHEMIDPLUS>
957-68-6

> <KEGG_COMPOUND_ACCESSION>
C07756

> <LINCS_ACCESSION>
LSM-5737

> <PDBECHEM_ACCESSION>
4KR

> <PUBMED_CITATION>
1384868; 24003232

$$$$

Marvin  11170811342D          

 29 31  0  0  1  0            999 V2000
   -1.3595    1.7519    0.0000 C   0  0  0  0  0  0  0  0  0  0  0  0
   -0.7145    1.2375    0.0000 C   0  0  0  0  0  0  0  0  0  0  0  0
   -0.7145    0.4125    0.0000 C   0  0  0  0  0  0  0  0  0  0  0  0
   -2.1638    1.5683    0.0000 C   0  0  0  0  0  0  0  0  0  0  0  0
   -2.1638    0.0817    0.0000 C   0  0  0  0  0  0  0  0  0  0  0  0
   -2.5218    0.8250    0.0000 C   0  0  0  0  0  0  0  0  0  0  0  0
    0.0000    0.0000    0.0000 C   0  0  0  0  0  0  0  0  0  0  0  0
    0.7145    0.4125    0.0000 C   0  0  0  0  0  0  0  0  0  0  0  0
    0.7145    1.2375    0.0000 C   0  0  0  0  0  0  0  0  0  0  0  0
    0.0000    1.6500    0.0000 C   0  0  0  0  0  0  0  0  0  0  0  0
    0.0000   -0.8250    0.0000 O   0  0  0  0  0  0  0  0  0  0  0  0
    1.4289    0.0000    0.0000 O   0  0  0  0  0  0  0  0  0  0  0  0
    1.4289    1.6500    0.0000 O   0  0  0  0  0  0  0  0  0  0  0  0
   -1.3595   -0.1019    0.0000 C   0  0  0  0  0  0  0  0  0  0  0  0
   -1.0015   -0.8452    0.0000 C   0  0  0  0  0  0  0  0  0  0  0  0
   -1.3595   -1.5885    0.0000 C   0  0  0  0  0  0  0  0  0  0  0  0
   -2.1638   -1.7721    0.0000 C   0  0  0  0  0  0  0  0  0  0  0  0
   -2.8088   -1.2577    0.0000 C   0  0  0  0  0  0  0  0  0  0  0  0
   -2.8088   -0.4327    0.0000 C   0  0  0  0  0  0  0  0  0  0  0  0
    1.4289    2.4750    0.0000 C   0  0  0  0  0  0  0  0  0  0  0  0
    2.1434    0.4125    0.0000 C   0  0  0  0  0  0  0  0  0  0  0  0
    0.7145   -1.2375    0.0000 C   0  0  0  0  0  0  0  0  0  0  0  0
   -3.5521   -1.6156    0.0000 O   0  0  0  0  0  0  0  0  0  0  0  0
   -2.3474   -2.5764    0.0000 O   0  0  0  0  0  0  0  0  0  0  0  0
   -1.7426   -3.1375    0.0000 C   0  0  0  0  0  0  0  0  0  0  0  0
   -3.3468    0.8250    0.0000 N   0  0  0  0  0  0  0  0  0  0  0  0
   -3.7593    1.5395    0.0000 C   0  0  0  0  0  0  0  0  0  0  0  0
   -3.3468    2.2539    0.0000 C   0  0  0  0  0  0  0  0  0  0  0  0
   -4.5843    1.5395    0.0000 O   0  0  0  0  0  0  0  0  0  0  0  0
  1  4  1  0  0  0  0
  2  3  2  0  0  0  0
  4  6  1  0  0  0  0
  1  2  1  0  0  0  0
  5  6  1  0  0  0  0
  3  7  1  0  0  0  0
  7  8  2  0  0  0  0
  8  9  1  0  0  0  0
  9 10  2  0  0  0  0
  2 10  1  0  0  0  0
  7 11  1  0  0  0  0
  8 12  1  0  0  0  0
  9 13  1  0  0  0  0
 16 17  2  0  0  0  0
 17 18  1  0  0  0  0
 15 16  1  0  0  0  0
  5 19  2  0  0  0  0
 14 15  2  0  0  0  0
 18 19  1  0  0  0  0
  3 14  1  0  0  0  0
 14  5  1  0  0  0  0
 13 20  1  0  0  0  0
 12 21  1  0  0  0  0
 11 22  1  0  0  0  0
 18 23  2  0  0  0  0
 17 24  1  0  0  0  0
 24 25  1  0  0  0  0
  6 26  1  0  0  0  0
 26 27  1  0  0  0  0
 27 28  1  0  0  0  0
 27 29  2  0  0  0  0
M  END
> <ID>
CHEBI:23359

> <NAME>
colchicine

> <DEFINITION>
An  alkaloid that is a carbotricyclic compound comprising 5,6,7,9-tetrahydrobenzo[a]heptalene having four methoxy substituents at the 1-, 2-, 3- and 10-positions as well as an oxo group at the 9-position and an acetamido group at the 7-position. It has been isolated from the plants belonging to genus Colchicum.

> <STAR>
3

> <IUPAC_NAME>
N-(1,2,3,10-tetramethoxy-9-oxo-5,6,7,9-tetrahydrobenzo[a]heptalen-7-yl)acetamide

> <FORMULA>
C22H25NO6

> <MASS>
399.43704

> <MONOISOTOPIC_MASS>
399.16819

> <CHARGE>
0

> <SMILES>
COc1cc2CCC(NC(C)=O)c3cc(=O)c(OC)ccc3-c2c(OC)c1OC

> <INCHI>
InChI=1S/C22H25NO6/c1-12(24)23-16-8-6-13-10-19(27-3)21(28-4)22(29-5)20(13)14-7-9-18(26-2)17(25)11-15(14)16/h7,9-11,16H,6,8H2,1-5H3,(H,23,24)

> <INCHIKEY>
IAKHMKGGTNLKSZ-UHFFFAOYSA-N

> <BEILSTEIN_REGISTRY_NUMBER>
2228812

> <CAS_REGISTRY_NUMBER>
54192-66-4

> <REAXYS_REGISTRY_NUMBER>
2228812

> <DRUGBANK_ACCESSION>
DB01394

> <HMDB_ACCESSION>
HMDB0015466

> <LINCS_ACCESSION>
LSM-6449

> <NIST_CHEMISTRY_WEBBOOK>
54192-66-4

> <PUBMED_CITATION>
10680067; 24074178; 7200520; 9819133

$$$$

Marvin  12220611512D          

 23 26  0  0  1  0            999 V2000
    1.8036   -0.1138    0.0000 C   0  0  0  0  0  0  0  0  0  0  0  0
    0.3045   -1.0964    0.0000 C   0  0  0  0  0  0  0  0  0  0  0  0
    1.8036    1.2211    0.0000 C   0  0  3  0  0  0  0  0  0  0  0  0
    0.3045    1.3786    0.0000 C   0  0  0  0  0  0  0  0  0  0  0  0
    2.2885    0.5536    0.0000 C   0  0  0  0  0  0  0  0  0  0  0  0
   -1.1245   -0.2714    0.0000 C   0  0  0  0  0  0  0  0  0  0  0  0
   -0.4100    0.9661    0.0000 C   0  0  0  0  0  0  0  0  0  0  0  0
   -0.4100   -1.5089    0.0000 C   0  0  0  0  0  0  0  0  0  0  0  0
    2.0585    2.0057    0.0000 O   0  0  0  0  0  0  0  0  0  0  0  0
   -1.1245   -1.0964    0.0000 C   0  0  0  0  0  0  0  0  0  0  0  0
   -1.8390    0.1411    0.0000 C   0  0  0  0  0  0  0  0  0  0  0  0
   -1.8390   -1.5089    0.0000 C   0  0  0  0  0  0  0  0  0  0  0  0
   -2.5534   -0.2714    0.0000 C   0  0  0  0  0  0  0  0  0  0  0  0
   -2.5534   -1.0964    0.0000 C   0  0  0  0  0  0  0  0  0  0  0  0
   -3.2679   -1.5089    0.0000 O   0  0  0  0  0  0  0  0  0  0  0  0
    0.3045   -0.2714    0.0000 C   0  0  2  0  0  0  0  0  0  0  0  0
    0.3045    0.5536    0.0000 H   0  0  0  0  0  0  0  0  0  0  0  0
   -0.4100    0.1411    0.0000 C   0  0  1  0  0  0  0  0  0  0  0  0
   -0.4100   -0.6839    0.0000 H   0  0  0  0  0  0  0  0  0  0  0  0
    1.0189    0.9661    0.0000 C   0  0  2  0  0  0  0  0  0  0  0  0
    1.0189    1.7911    0.0000 C   0  0  0  0  0  0  0  0  0  0  0  0
    1.0189    0.1411    0.0000 C   0  0  1  0  0  0  0  0  0  0  0  0
    1.0189   -0.6839    0.0000 H   0  0  0  0  0  0  0  0  0  0  0  0
 22 16  1  0  0  0  0
 22 20  1  0  0  0  0
 22  1  1  0  0  0  0
 16 18  1  0  0  0  0
 16  2  1  0  0  0  0
 20  3  1  0  0  0  0
 20  4  1  0  0  0  0
  5  1  1  0  0  0  0
 18  6  1  0  0  0  0
 18  7  1  0  0  0  0
  2  8  1  0  0  0  0
  3  9  1  0  0  0  0
  6 10  2  0  0  0  0
  6 11  1  0  0  0  0
 10 12  1  0  0  0  0
 11 13  2  0  0  0  0
 12 14  2  0  0  0  0
 14 15  1  0  0  0  0
  3  5  1  0  0  0  0
  4  7  1  0  0  0  0
  8 10  1  0  0  0  0
 13 14  1  0  0  0  0
 16 17  1  1  0  0  0
 18 19  1  6  0  0  0
 20 21  1  1  0  0  0
 22 23  1  6  0  0  0
M  END
> <ID>
CHEBI:23965

> <NAME>
estradiol

> <DEFINITION>
A 3-hydroxy steroid that is estra-1,3,5(10)-triene substituted by hydroxy groups at positions 3 and 17.

> <STAR>
3

> <SECONDARY_ID>
CHEBI:42364

> <SYNONYM>
oestradiol

> <IUPAC_NAME>
estra-1,3,5(10)-triene-3,17-diol

> <FORMULA>
C18H24O2

> <MASS>
272.38196

> <MONOISOTOPIC_MASS>
272.17763

> <CHARGE>
0

> <SMILES>
[H][C@]12CC[C@]3(C)C(O)CC[C@@]3([H])[C@]1([H])CCc1cc(O)ccc21

> <INCHI>
InChI=1S/C18H24O2/c1-18-9-8-14-13-5-3-12(19)10-11(13)2-4-15(14)16(18)6-7-17(18)20/h3,5,10,14-17,19-20H,2,4,6-9H2,1H3/t14-,15-,16+,17?,18+/m1/s1

> <INCHIKEY>
VOXZDWNPVJITMN-WKUFJEKOSA-N

> <WIKIPEDIA_ACCESSION>
Estradiol

> <PUBMED_CITATION>
10696569; 24084694

$$$$

Marvin  11031114092D          

 23 23  0  0  1  0            999 V2000
    6.4555   -5.5090    0.0000 C   0  0  1  0  0  0  0  0  0  0  0  0
    6.4555   -6.3340    0.0000 C   0  0  1  0  0  0  0  0  0  0  0  0
    5.7409   -5.0965    0.0000 O   0  0  0  0  0  0  0  0  0  0  0  0
    5.7409   -6.7465    0.0000 C   0  0  2  0  0  0  0  0  0  0  0  0
    5.0265   -5.5090    0.0000 C   0  0  1  0  0  0  0  0  0  0  0  0
    5.0265   -6.3340    0.0000 C   0  0  2  0  0  0  0  0  0  0  0  0
    7.1699   -6.7466    0.0000 O   0  0  0  0  0  0  0  0  0  0  0  0
    5.7409   -7.5715    0.0000 O   0  0  0  0  0  0  0  0  0  0  0  0
    4.3120   -6.7465    0.0000 O   0  0  0  0  0  0  0  0  0  0  0  0
    4.3120   -5.0965    0.0000 C   0  0  0  0  0  0  0  0  0  0  0  0
    3.5975   -5.5091    0.0000 O   0  0  0  0  0  0  0  0  0  0  0  0
    7.1699   -5.0965    0.0000 O   0  0  0  0  0  0  0  0  0  0  0  0
    9.3134   -3.8590    0.0000 C   0  0  2  0  0  0  0  0  0  0  0  0
    8.5989   -4.2715    0.0000 C   0  0  2  0  0  0  0  0  0  0  0  0
    7.8844   -3.8590    0.0000 C   0  0  1  0  0  0  0  0  0  0  0  0
    7.1699   -4.2715    0.0000 C   0  0  1  0  0  0  0  0  0  0  0  0
    6.4555   -3.8590    0.0000 C   0  0  0  0  0  0  0  0  0  0  0  0
   10.0279   -4.2715    0.0000 C   0  0  0  0  0  0  0  0  0  0  0  0
    8.5989   -5.0965    0.0000 O   0  0  0  0  0  0  0  0  0  0  0  0
    7.8844   -3.0340    0.0000 O   0  0  0  0  0  0  0  0  0  0  0  0
    5.7410   -4.2715    0.0000 O   0  0  0  0  0  0  0  0  0  0  0  0
   10.7423   -3.8590    0.0000 O   0  0  0  0  0  0  0  0  0  0  0  0
    9.3134   -3.0340    0.0000 N   0  0  0  0  0  0  0  0  0  0  0  0
  1  2  1  0  0  0  0
  1  3  1  0  0  0  0
  2  4  1  0  0  0  0
  3  5  1  0  0  0  0
  4  6  1  0  0  0  0
  5  6  1  0  0  0  0
  2  7  1  6  0  0  0
  4  8  1  1  0  0  0
  6  9  1  1  0  0  0
  5 10  1  1  0  0  0
 11 10  1  0  0  0  0
  1 12  1  1  0  0  0
 14 13  1  0  0  0  0
 15 14  1  0  0  0  0
 16 15  1  0  0  0  0
 17 16  1  0  0  0  0
 18 13  1  0  0  0  0
 14 19  1  1  0  0  0
 15 20  1  1  0  0  0
 16 12  1  6  0  0  0
 21 17  1  0  0  0  0
 22 18  2  0  0  0  0
 13 23  1  1  0  0  0
M  END
> <ID>
CHEBI:25001

> <NAME>
lactosamine

> <DEFINITION>
A disaccharide that consists of D-glucosamine having a β-D-galactosyl residue attached at position 4.

> <STAR>
3

> <SYNONYM>
LacN; 2-Amino-2-deoxy-4-O-beta-D-galactopyranosyl-D-glucose

> <IUPAC_NAME>
beta-D-galactopyranosyl-(1->4)-D-glucosamine; beta-D-galactopyranosyl-(1->4)-2-amino-2-deoxy-D-glucose

> <FORMULA>
C12H23NO10

> <MASS>
341.31170

> <MONOISOTOPIC_MASS>
341.13220

> <CHARGE>
0

> <SMILES>
N[C@@H](C=O)[C@@H](O)[C@H](O)[C@@H](CO)O[C@@H]1O[C@H](CO)[C@H](O)[C@H](O)[C@H]1O

> <INCHI>
InChI=1S/C12H23NO10/c13-4(1-14)7(17)8(18)5(2-15)22-12-11(21)10(20)9(19)6(3-16)23-12/h1,4-12,15-21H,2-3,13H2/t4-,5+,6+,7+,8+,9-,10-,11+,12+/m0/s1

> <INCHIKEY>
DOVBXGDYENZJBJ-ONMPCKGSSA-N

> <CAS_REGISTRY_NUMBER>
13000-25-4

> <CHEMIDPLUS>
13000-25-4

> <HMDB_ACCESSION>
HMDB0006591

$$$$

Marvin  02120600002D          

 25 29  0  0  1  0            999 V2000
   -0.6920   -0.3228    0.0000 C   0  0  0  0  0  0  0  0  0  0  0  0
    0.0225    0.0897    0.0000 C   0  0  0  0  0  0  0  0  0  0  0  0
   -1.4766   -0.0678    0.0000 C   0  0  1  0  0  0  0  0  0  0  0  0
   -0.6920   -1.1478    0.0000 C   0  0  0  0  0  0  0  0  0  0  0  0
    0.7370   -0.3228    0.0000 C   0  0  0  0  0  0  0  0  0  0  0  0
    0.0225    0.9147    0.0000 O   0  0  0  0  0  0  0  0  0  0  0  0
   -1.9615   -0.7353    0.0000 C   0  0  1  0  0  0  0  0  0  0  0  0
   -1.9615    0.5996    0.0000 C   0  0  0  0  0  0  0  0  0  0  0  0
    0.0225   -1.5603    0.0000 C   0  0  0  0  0  0  0  0  0  0  0  0
   -1.4766   -1.4027    0.0000 O   0  0  0  0  0  0  0  0  0  0  0  0
    1.4514    0.0897    0.0000 C   0  0  0  0  0  0  0  0  0  0  0  0
    0.7370   -1.1478    0.0000 C   0  0  0  0  0  0  0  0  0  0  0  0
    0.7370    1.3272    0.0000 C   0  0  0  0  0  0  0  0  0  0  0  0
   -2.7461   -0.4803    0.0000 O   0  0  0  0  0  0  0  0  0  0  0  0
   -2.7461    0.3447    0.0000 C   0  0  0  0  0  0  0  0  0  0  0  0
    1.4514    0.9147    0.0000 C   0  0  0  0  0  0  0  0  0  0  0  0
    2.2361   -0.1652    0.0000 C   0  0  0  0  0  0  0  0  0  0  0  0
    1.4514   -1.5603    0.0000 O   0  0  0  0  0  0  0  0  0  0  0  0
    0.7370    2.1522    0.0000 O   0  0  0  0  0  0  0  0  0  0  0  0
    2.2361    1.1697    0.0000 C   0  0  0  0  0  0  0  0  0  0  0  0
    2.7210    0.5022    0.0000 C   0  0  0  0  0  0  0  0  0  0  0  0
    2.1659   -1.1478    0.0000 C   0  0  0  0  0  0  0  0  0  0  0  0
    2.4910    1.9543    0.0000 O   0  0  0  0  0  0  0  0  0  0  0  0
   -0.9917    0.5996    0.0000 H   0  0  0  0  0  0  0  0  0  0  0  0
   -2.4464   -1.4027    0.0000 H   0  0  0  0  0  0  0  0  0  0  0  0
  1  2  2  0  0  0  0
  1  3  1  0  0  0  0
  1  4  1  0  0  0  0
  2  5  1  0  0  0  0
  2  6  1  0  0  0  0
  3  7  1  0  0  0  0
  3  8  1  0  0  0  0
  4  9  2  0  0  0  0
  4 10  1  0  0  0  0
  5 11  1  0  0  0  0
  5 12  2  0  0  0  0
  6 13  1  0  0  0  0
  7 14  1  0  0  0  0
  8 15  2  0  0  0  0
 11 16  2  0  0  0  0
 11 17  1  0  0  0  0
 12 18  1  0  0  0  0
 13 19  2  0  0  0  0
 16 20  1  0  0  0  0
 17 21  1  0  0  0  0
 18 22  1  0  0  0  0
 20 23  2  0  0  0  0
  7 10  1  0  0  0  0
  9 12  1  0  0  0  0
 13 16  1  0  0  0  0
 14 15  1  0  0  0  0
 20 21  1  0  0  0  0
  3 24  1  6  0  0  0
  7 25  1  6  0  0  0
M  END
> <ID>
CHEBI:2504

> <NAME>
aflatoxin B1

> <DEFINITION>
An aflatoxin having a tetrahydrocyclopenta[c]furo[3',2':4,5]furo[2,3-h]chromene skeleton with oxygen functionality at positions 1, 4 and 11.

> <STAR>
3

> <SYNONYM>
aflatoxin B(1); Aflatoxin B1; 2,3,6aalpha,9aalpha-Tetrahydro-4-methoxycyclopenta(c)furo(3',2':4,5)furo(2,3-h)(1)benzopyran-1,11-dione

> <IUPAC_NAME>
(6aR,9aS)-4-methoxy-2,3,6a,9a-tetrahydrocyclopenta[c]furo[3',2':4,5]furo[2,3-h]chromene-1,11-dione

> <FORMULA>
C17H12O6

> <MASS>
312.27358

> <MONOISOTOPIC_MASS>
312.06339

> <CHARGE>
0

> <SMILES>
[H][C@]12OC=C[C@@]1([H])c1c(O2)cc(OC)c2c3CCC(=O)c3c(=O)oc12

> <INCHI>
InChI=1S/C17H12O6/c1-20-10-6-11-14(8-4-5-21-17(8)22-11)15-13(10)7-2-3-9(18)12(7)16(19)23-15/h4-6,8,17H,2-3H2,1H3/t8-,17+/m0/s1

> <INCHIKEY>
OQIQSTLJSLGHID-WNWIJWBNSA-N

> <CAS_REGISTRY_NUMBER>
1162-65-8

> <CHEMIDPLUS>
1162-65-8

> <KEGG_COMPOUND_ACCESSION>
C06800

> <KNAPSACK_ACCESSION>
C00000546

$$$$

Marvin  12090913172D          

 30 32  0  0  0  0            999 V2000
   15.5925  -12.0450    0.0000 C   0  0  0  0  0  0  0  0  0  0  0  0
   14.8913  -12.4575    0.0000 C   0  0  0  0  0  0  0  0  0  0  0  0
   14.8913  -13.3238    0.0000 C   0  0  0  0  0  0  0  0  0  0  0  0
   15.5925  -13.7363    0.0000 N   0  0  0  0  0  0  0  0  0  0  0  0
   16.3350  -13.3238    0.0000 C   0  0  0  0  0  0  0  0  0  0  0  0
   16.3350  -12.4575    0.0000 C   0  0  0  0  0  0  0  0  0  0  0  0
   16.3350  -11.6325    0.0000 C   0  0  0  0  0  0  0  0  0  0  0  0
   14.8913  -11.6325    0.0000 N   0  0  0  0  0  0  0  0  0  0  0  0
   14.2313  -12.0450    0.0000 C   0  0  0  0  0  0  0  0  0  0  0  0
   14.8913  -10.8075    0.0000 C   0  0  0  0  0  0  0  0  0  0  0  0
   15.5925  -10.3950    0.0000 C   0  0  0  0  0  0  0  0  0  0  0  0
   15.5925   -9.5288    0.0000 C   0  0  0  0  0  0  0  0  0  0  0  0
   14.8913   -9.1163    0.0000 C   0  0  0  0  0  0  0  0  0  0  0  0
   14.1900   -9.5700    0.0000 C   0  0  0  0  0  0  0  0  0  0  0  0
   14.1900  -10.3950    0.0000 C   0  0  0  0  0  0  0  0  0  0  0  0
   13.5300  -11.6325    0.0000 C   0  0  0  0  0  0  0  0  0  0  0  0
   12.7463  -12.0450    0.0000 C   0  0  0  0  0  0  0  0  0  0  0  0
   14.2313  -12.8700    0.0000 O   0  0  0  0  0  0  0  0  0  0  0  0
   17.0363  -12.0450    0.0000 O   0  0  0  0  0  0  0  0  0  0  0  0
   17.7375  -11.6325    0.0000 C   0  0  0  0  0  0  0  0  0  0  0  0
   15.5925  -14.5613    0.0000 C   0  0  0  0  0  0  0  0  0  0  0  0
   16.2938  -14.9325    0.0000 C   0  0  0  0  0  0  0  0  0  0  0  0
   17.0363  -14.5613    0.0000 N   0  0  0  0  0  0  0  0  0  0  0  0
   17.6963  -15.0150    0.0000 C   0  0  0  0  0  0  0  0  0  0  0  0
   18.3563  -14.5200    0.0000 N   0  0  0  0  0  0  0  0  0  0  0  0
   18.1088  -13.7775    0.0000 N   0  0  0  0  0  0  0  0  0  0  0  0
   17.2838  -13.7775    0.0000 N   0  0  0  0  0  0  0  0  0  0  0  0
   17.6963  -15.8400    0.0000 O   0  0  0  0  0  0  0  0  0  0  0  0
   19.0575  -14.9325    0.0000 C   0  0  0  0  0  0  0  0  0  0  0  0
   19.7588  -14.5200    0.0000 C   0  0  0  0  0  0  0  0  0  0  0  0
  1  2  1  0  0  0  0
  2  3  1  0  0  0  0
  3  4  1  0  0  0  0
  4  5  1  0  0  0  0
  5  6  1  0  0  0  0
  1  6  1  0  0  0  0
  1  7  1  0  0  0  0
  1  8  1  0  0  0  0
  8  9  1  0  0  0  0
  8 10  1  0  0  0  0
 10 11  2  0  0  0  0
 11 12  1  0  0  0  0
 12 13  2  0  0  0  0
 13 14  1  0  0  0  0
 14 15  2  0  0  0  0
 10 15  1  0  0  0  0
  9 16  1  0  0  0  0
 16 17  1  0  0  0  0
  9 18  2  0  0  0  0
  7 19  1  0  0  0  0
 19 20  1  0  0  0  0
  4 21  1  0  0  0  0
 21 22  1  0  0  0  0
 22 23  1  0  0  0  0
 23 24  1  0  0  0  0
 24 25  1  0  0  0  0
 25 26  1  0  0  0  0
 26 27  2  0  0  0  0
 23 27  1  0  0  0  0
 24 28  2  0  0  0  0
 25 29  1  0  0  0  0
 29 30  1  0  0  0  0
M  END
> <ID>
CHEBI:2569

> <NAME>
alfentanil

> <DEFINITION>
A member of the class of piperidines that is piperidine having a 2-(4-ethyl-5-oxo-4,5-dihydro-1H-tetrazol-1-yl)ethyl group at the 1-position as well as N-phenylpropanamido- and methoxymethyl groups at the 4-position.

> <STAR>
3

> <SYNONYM>
N-(1-(2-(4-Ethyl-5-oxo-2-tetrazolin-1-yl)ethyl)-4-(methoxymethyl)-4-piperidyl)propionanilide; Alfentanyl

> <IUPAC_NAME>
N-{1-[2-(4-ethyl-5-oxo-4,5-dihydro-1H-tetrazol-1-yl)ethyl]-4-(methoxymethyl)piperidin-4-yl}-N-phenylpropanamide

> <INN>
alfentanilum; alfentanil

> <FORMULA>
C21H32N6O3

> <MASS>
416.51720

> <MONOISOTOPIC_MASS>
416.25359

> <CHARGE>
0

> <SMILES>
CCC(=O)N(c1ccccc1)C1(CCN(CCn2nnn(CC)c2=O)CC1)COC

> <INCHI>
InChI=1S/C21H32N6O3/c1-4-19(28)27(18-9-7-6-8-10-18)21(17-30-3)11-13-24(14-12-21)15-16-26-20(29)25(5-2)22-23-26/h6-10H,4-5,11-17H2,1-3H3

> <INCHIKEY>
IDBPHNDTYPBSNI-UHFFFAOYSA-N

> <BEILSTEIN_REGISTRY_NUMBER>
1188293

> <CAS_REGISTRY_NUMBER>
71195-58-9

> <REAXYS_REGISTRY_NUMBER>
1188293

> <CHEMIDPLUS>
71195-58-9

> <DRUGBANK_ACCESSION>
DB00802

> <HMDB_ACCESSION>
HMDB0014940

> <KEGG_COMPOUND_ACCESSION>
C08005

> <KEGG_DRUG_ACCESSION>
D07122

> <WIKIPEDIA_ACCESSION>
Alfentanil

> <PUBMED_CITATION>
11240593; 11999595; 16621415; 23446076

$$$$

Marvin  05211015312D          

 25 27  0  0  0  0            999 V2000
   12.9174   -8.8091    0.0000 C   0  0  0  0  0  0  0  0  0  0  0  0
   13.7423   -8.8091    0.0000 C   0  0  0  0  0  0  0  0  0  0  0  0
   14.0731   -7.3598    0.0000 C   0  0  0  0  0  0  0  0  0  0  0  0
   13.3236   -8.3628    0.0000 N   0  0  0  0  0  0  0  0  0  0  0  0
   13.3236   -7.5378    0.0000 C   0  0  0  0  0  0  0  0  0  0  0  0
   13.3299   -7.0018    0.0000 C   0  0  1  0  0  0  0  0  0  0  0  0
   12.5866   -7.3598    0.0000 C   0  0  2  0  0  0  0  0  0  0  0  0
   11.8721   -6.1223    0.0000 O   0  0  0  0  0  0  0  0  0  0  0  0
   11.8721   -6.9473    0.0000 C   0  0  0  0  0  0  0  0  0  0  0  0
   11.1576   -7.3598    0.0000 O   0  0  0  0  0  0  0  0  0  0  0  0
   10.4431   -6.9473    0.0000 C   0  0  0  0  0  0  0  0  0  0  0  0
   13.3299   -6.1768    0.0000 O   0  0  0  0  0  0  0  0  0  0  0  0
   12.4030   -8.1640    0.0000 C   0  0  1  0  0  0  0  0  0  0  0  0
   11.6061   -8.3775    0.0000 H   0  0  0  0  0  0  0  0  0  0  0  0
   14.2567   -8.1640    0.0000 C   0  0  1  0  0  0  0  0  0  0  0  0
   15.0536   -8.3775    0.0000 H   0  0  0  0  0  0  0  0  0  0  0  0
   14.0444   -5.7643    0.0000 P   0  0  0  0  0  0  0  0  0  0  0  0
   14.7589   -6.1768    0.0000 C   0  0  0  0  0  0  0  0  0  0  0  0
   14.0444   -4.9393    0.0000 O   0  0  0  0  0  0  0  0  0  0  0  0
   14.0444   -6.5893    0.0000 O   0  0  0  0  0  0  0  0  0  0  0  0
   15.4733   -5.7643    0.0000 C   0  0  0  0  0  0  0  0  0  0  0  0
   14.7589   -7.0018    0.0000 C   0  0  0  0  0  0  0  0  0  0  0  0
   15.4733   -7.4143    0.0000 C   0  0  0  0  0  0  0  0  0  0  0  0
   16.1878   -7.0018    0.0000 C   0  0  0  0  0  0  0  0  0  0  0  0
   16.1878   -6.1768    0.0000 C   0  0  0  0  0  0  0  0  0  0  0  0
  6  7  1  0  0  0  0
  3  6  1  0  0  0  0
  7 13  1  0  0  0  0
 13  1  1  0  0  0  0
  1  2  1  0  0  0  0
  2 15  1  0  0  0  0
 15  3  1  0  0  0  0
 13  4  1  1  0  0  0
 15  4  1  1  0  0  0
  4  5  1  0  0  0  0
  6 12  1  1  0  0  0
  7  9  1  1  0  0  0
  9  8  2  0  0  0  0
  9 10  1  0  0  0  0
 10 11  1  0  0  0  0
 13 14  1  1  0  0  0
 15 16  1  1  0  0  0
 12 17  1  0  0  0  0
 17 18  1  0  0  0  0
 17 19  2  0  0  0  0
 17 20  1  0  0  0  0
 21 18  2  0  0  0  0
 18 22  1  0  0  0  0
 22 23  2  0  0  0  0
 23 24  1  0  0  0  0
 24 25  2  0  0  0  0
 21 25  1  0  0  0  0
M  END
> <ID>
CHEBI:273574

> <NAME>
O-hydroxy(phenyl)phosphinoyl ecgonine methyl ester

> <DEFINITION>
The O-hydroxy(phenyl)phosphinoyl derivative of ecgonine methyl ester.

> <STAR>
3

> <SECONDARY_ID>
CHEBI:45902

> <IUPAC_NAME>
methyl (1R,2R,3S,5S)-3-{[hydroxy(phenyl)phosphoryl]oxy}-8-methyl-8-azabicyclo[3.2.1]octane-2-carboxylate

> <FORMULA>
C16H22NO5P

> <MASS>
339.32330

> <MONOISOTOPIC_MASS>
339.12356

> <CHARGE>
0

> <SMILES>
[H][C@]12CC[C@]([H])([C@H]([C@H](C1)OP(O)(=O)c1ccccc1)C(=O)OC)N2C

> <INCHI>
InChI=1S/C16H22NO5P/c1-17-11-8-9-13(17)15(16(18)21-2)14(10-11)22-23(19,20)12-6-4-3-5-7-12/h3-7,11,13-15H,8-10H2,1-2H3,(H,19,20)/t11-,13+,14-,15+/m0/s1

> <INCHIKEY>
WJTKWTJTOSZMKO-PMOUVXMZSA-N

> <BEILSTEIN_REGISTRY_NUMBER>
7443069

> <REAXYS_REGISTRY_NUMBER>
7443069

> <DRUGBANK_ACCESSION>
DB08618

> <PDB_ACCESSION>
2AJX

> <PDBECHEM_ACCESSION>
TGN

> <PUBMED_CITATION>
16472740; 8575031

$$$$

Mrv0541 08221414112D          

 13 13  0  0  0  0            999 V2000
   11.3945    1.7811    0.0000 O   0  0  0  0  0  0  0  0  0  0  0  0
   10.6801    1.3686    0.0000 C   0  0  1  0  0  0  0  0  0  0  0  0
   10.6801    0.5436    0.0000 C   0  0  2  0  0  0  0  0  0  0  0  0
   11.3945    0.1311    0.0000 C   0  0  1  0  0  0  0  0  0  0  0  0
   12.1090    0.5436    0.0000 C   0  0  2  0  0  0  0  0  0  0  0  0
   12.1090    1.3686    0.0000 C   0  0  2  0  0  0  0  0  0  0  0  0
   12.8235    1.7811    0.0000 O   0  0  0  0  0  0  0  0  0  0  0  0
   12.8235    0.1311    0.0000 O   0  0  0  0  0  0  0  0  0  0  0  0
   11.3945   -0.6939    0.0000 O   0  0  0  0  0  0  0  0  0  0  0  0
    9.9656    1.7811    0.0000 C   0  0  0  0  0  0  0  0  0  0  0  0
    8.8612    1.7762    0.0000 O   0  0  0  0  0  0  0  0  0  0  0  0
   14.2207    1.7780    0.0000 H   0  0  0  0  0  0  0  0  0  0  0  0
    9.9656    0.1311    0.0000 O   0  0  0  0  0  0  0  0  0  0  0  0
  1  2  1  0  0  0  0
  1  6  1  0  0  0  0
  2  3  1  0  0  0  0
  2 10  1  1  0  0  0
  3  4  1  0  0  0  0
  4  5  1  0  0  0  0
  4  9  1  1  0  0  0
  5  6  1  0  0  0  0
  5  8  1  6  0  0  0
  6  7  1  1  0  0  0
  7 12  1  0  0  0  0
 10 11  1  0  0  0  0
  3 13  1  6  0  0  0
M  STY  1   1 SRU
M  SCN  1   1 HT 
M  SAL   1 11   7   6   1   8   5   9   4  13   3   2  10
M  SDI   1  4    9.4097    1.2777    9.3949    2.2676
M  SDI   1  4   13.5225    2.3001   13.5561    1.3107
M  SBL   1  2  11  12
M  SMT   1 n
M  END
> <ID>
CHEBI:27380

> <NAME>
(1->6)-beta-D-glucan

> <STAR>
3

> <SECONDARY_ID>
CHEBI:560; CHEBI:18950

> <SYNONYM>
1,6-beta-D-Glucan

> <IUPAC_NAME>
(1->6)-beta-D-glucopyranan

> <FORMULA>
(C6H10O5)nH2O

> <CHARGE>
0

> <KEGG_COMPOUND_ACCESSION>
C02493

$$$$

Marvin  10120916462D          

 14 14  0  0  1  0            999 V2000
    0.2847    0.0007    0.0000 C   0  0  0  0  0  0  0  0  0  0  0  0
   -0.4298   -0.4118    0.0000 C   0  0  0  0  0  0  0  0  0  0  0  0
    0.9992   -0.4118    0.0000 O   0  0  0  0  0  0  0  0  0  0  0  0
    0.2847    0.8257    0.0000 O   0  0  0  0  0  0  0  0  0  0  0  0
   -1.1442    0.0007    0.0000 N   0  0  0  0  0  0  0  0  0  0  0  0
   -1.8587   -0.4118    0.0000 C   0  0  0  0  0  0  0  0  0  0  0  0
   -1.8587   -1.2368    0.0000 O   0  0  0  0  0  0  0  0  0  0  0  0
   -2.5731    0.0007    0.0000 C   0  0  0  0  0  0  0  0  0  0  0  0
   -3.2876   -0.4118    0.0000 C   0  0  0  0  0  0  0  0  0  0  0  0
   -4.0021    0.0007    0.0000 C   0  0  0  0  0  0  0  0  0  0  0  0
   -4.7165   -0.4118    0.0000 C   0  0  0  0  0  0  0  0  0  0  0  0
   -4.7165   -1.2368    0.0000 C   0  0  0  0  0  0  0  0  0  0  0  0
   -4.0021   -1.6493    0.0000 C   0  0  0  0  0  0  0  0  0  0  0  0
   -3.2876   -1.2368    0.0000 C   0  0  0  0  0  0  0  0  0  0  0  0
  2  1  1  0  0  0  0
  4  1  2  0  0  0  0
  3  1  1  0  0  0  0
  2  5  1  0  0  0  0
  5  6  1  0  0  0  0
  6  7  2  0  0  0  0
  6  8  1  0  0  0  0
  8  9  1  0  0  0  0
 14  9  2  0  0  0  0
 10  9  1  0  0  0  0
 10 11  2  0  0  0  0
 11 12  1  0  0  0  0
 12 13  2  0  0  0  0
 13 14  1  0  0  0  0
M  END
> <ID>
CHEBI:27480

> <NAME>
phenylacetylglycine

> <DEFINITION>
A N-acylglycine that is glycine substituted on nitrogen with a phenylacetyl group.

> <STAR>
3

> <SECONDARY_ID>
CHEBI:25983; CHEBI:8088; CHEBI:613592

> <SYNONYM>
Phenylacetylglycine; Phenacetylglycine; Phenaceturic acid; N-Phenylacetylglycine; N-Phenacetylglycine

> <IUPAC_NAME>
N-(phenylacetyl)glycine

> <FORMULA>
C10H11NO3

> <MASS>
193.19920

> <MONOISOTOPIC_MASS>
193.07389

> <CHARGE>
0

> <SMILES>
OC(=O)CNC(=O)Cc1ccccc1

> <INCHI>
InChI=1S/C10H11NO3/c12-9(11-7-10(13)14)6-8-4-2-1-3-5-8/h1-5H,6-7H2,(H,11,12)(H,13,14)

> <INCHIKEY>
UTYVDVLMYQPLQB-UHFFFAOYSA-N

> <CAS_REGISTRY_NUMBER>
500-98-1

> <REAXYS_REGISTRY_NUMBER>
1107116

> <CHEMIDPLUS>
500-98-1

> <HMDB_ACCESSION>
HMDB0000821

> <KEGG_COMPOUND_ACCESSION>
C05598

> <METACYC_ACCESSION>
CPD-11715

> <PUBMED_CITATION>
15764292; 19961175; 21167146; 22770225; 22935565

$$$$

Marvin  03081010172D          

  6  5  0  0  0  0            999 V2000
    9.8435   -5.1583    0.0000 C   0  0  0  0  0  0  0  0  0  0  0  0
   10.5579   -4.7458    0.0000 O   0  0  0  0  0  0  0  0  0  0  0  0
   11.2723   -5.1583    0.0000 C   0  0  0  0  0  0  0  0  0  0  0  0
    9.1290   -4.7458    0.0000 C   0  0  0  0  0  0  0  0  0  0  0  0
    9.8435   -5.9834    0.0000 C   0  0  0  0  0  0  0  0  0  0  0  0
    9.1290   -5.5708    0.0000 C   0  0  0  0  0  0  0  0  0  0  0  0
  1  2  1  0  0  0  0
  2  3  1  0  0  0  0
  1  4  1  0  0  0  0
  1  5  1  0  0  0  0
  1  6  1  0  0  0  0
M  END
> <ID>
CHEBI:27642

> <NAME>
methyl tert-butyl ether

> <DEFINITION>
An ether having methyl and tert-butyl as the two alkyl components.

> <STAR>
3

> <SECONDARY_ID>
CHEBI:25261; CHEBI:6860; CHEBI:59027

> <SYNONYM>
tert-C4H9OCH3; tert-Butyl methyl ether; t-Butyl methyl ether; MTBE; Methyl tertiary-butyl ether; Methyl tert-butyl ether; Methyl t-butyl ether; Methyl 1,1-dimethylethyl ether; 2-Methyl-2-methoxypropane; 2-Methoxy-2-methylpropane

> <IUPAC_NAME>
tert-butyl methyl ether

> <FORMULA>
C5H12O

> <MASS>
88.14820

> <MONOISOTOPIC_MASS>
88.08882

> <CHARGE>
0

> <SMILES>
COC(C)(C)C

> <INCHI>
InChI=1S/C5H12O/c1-5(2,3)6-4/h1-4H3

> <INCHIKEY>
BZLVMXJERCGZMT-UHFFFAOYSA-N

> <BEILSTEIN_REGISTRY_NUMBER>
1730942

> <CAS_REGISTRY_NUMBER>
1634-04-4

> <GMELIN_REGISTRY_NUMBER>
773738

> <REAXYS_REGISTRY_NUMBER>
1730942

> <CHEMIDPLUS>
1634-04-4

> <KEGG_COMPOUND_ACCESSION>
C11344

> <WIKIPEDIA_ACCESSION>
MTBE

> <PUBMED_CITATION>
19201538; 21044818; 21072404; 21112690; 21130999; 21131048; 21227585; 21315889; 21330701; 21482276; 21644118; 21684239; 21780613; 21782339; 9472332

$$$$

Ketcher 12091916432D 1   1.00000     0.00000     0

 26 27  0     1  0            999 V2000
   -0.8661   -0.5000    0.0000 C   0  0  0  0  0  0  0  0  0  0  0  0
    0.0000   -1.0000    0.0000 C   0  0  0  0  0  0  0  0  0  0  0  0
    0.8661    0.5000    0.0000 C   0  0  0  0  0  0  0  0  0  0  0  0
    0.0000    1.0000    0.0000 O   0  0  0  0  0  0  0  0  0  0  0  0
    0.8661   -0.5000    0.0000 C   0  0  0  0  0  0  0  0  0  0  0  0
   -0.8661    0.5000    0.0000 C   0  0  0  0  0  0  0  0  0  0  0  0
    1.7320    2.0000    0.0000 C   0  0  0  0  0  0  0  0  0  0  0  0
    2.5981    2.5000    0.0000 C   0  0  0  0  0  0  0  0  0  0  0  0
    1.7320    1.0000    0.0000 O   0  0  0  0  0  0  0  0  0  0  0  0
    0.8661    2.5000    0.0000 C   0  0  0  0  0  0  0  0  0  0  0  0
    2.5981    3.5000    0.0000 C   0  0  0  0  0  0  0  0  0  0  0  0
    0.8661    3.5000    0.0000 C   0  0  0  0  0  0  0  0  0  0  0  0
    0.0000    2.0000    0.0000 O   0  0  0  0  0  0  0  0  0  0  0  0
    1.7320    4.0000    0.0000 O   0  0  0  0  0  0  0  0  0  0  0  0
    3.4641    4.0000    0.0000 O   0  0  0  0  0  0  0  0  0  0  0  0
    0.0000    4.0000    0.0000 C   0  0  0  0  0  0  0  0  0  0  0  0
    1.7320   -1.0000    0.0000 O   0  0  0  0  0  0  0  0  0  0  0  0
    0.0000   -2.0000    0.0000 O   0  0  0  0  0  0  0  0  0  0  0  0
   -1.7320   -1.0000    0.0000 O   0  0  0  0  0  0  0  0  0  0  0  0
   -1.7320    1.0000    0.0000 C   0  0  0  0  0  0  0  0  0  0  0  0
    3.4641    2.0000    0.0000 N   0  0  0  0  0  0  0  0  0  0  0  0
    4.3302    2.5000    0.0000 C   0  0  0  0  0  0  0  0  0  0  0  0
    5.1961    2.0000    0.0000 C   0  0  0  0  0  0  0  0  0  0  0  0
    4.3302    3.5000    0.0000 O   0  0  0  0  0  0  0  0  0  0  0  0
   -0.0000    5.0000    0.0000 O   0  0  0  0  0  0  0  0  0  0  0  0
   -1.7320    2.0000    0.0000 O   0  0  0  0  0  0  0  0  0  0  0  0
  1 19  1  1     0  0
  2  1  1  0     0  0
  2 18  1  1     0  0
  3  9  1  1     0  0
  3  4  1  0     0  0
  3  5  1  0     0  0
  5  2  1  0     0  0
  5 17  1  6     0  0
  6  1  1  0     0  0
  4  6  1  0     0  0
  6 20  1  1     0  0
  7  8  1  0     0  0
  7  9  1  1     0  0
  7 10  1  0     0  0
  8 11  1  0     0  0
  8 21  1  6     0  0
 10 12  1  0     0  0
 10 13  1  6     0  0
 11 14  1  0     0  0
 11 15  1  0     0  0
 12 16  1  1     0  0
 12 14  1  0     0  0
 21 22  1  0     0  0
 22 23  1  0     0  0
 22 24  2  0     0  0
 16 25  1  0     0  0
 20 26  1  0     0  0
M  END
> <ID>
CHEBI:27707

> <NAME>
beta-D-Galp-(1->3)-D-GlcpNAc

> <DEFINITION>
An amino disaccharide consisting of β-D-galactose linked via a (1→3)-glycosidic bond to N-acetyl-D-glucosamine.

> <STAR>
3

> <SECONDARY_ID>
CHEBI:12349; CHEBI:12353; CHEBI:22758; CHEBI:10378; CHEBI:59076

> <SYNONYM>
Lacto-N-biose; Galbeta1-3GlcNAc; Galbeta1,3GlcNAc; betaGal1->3DGlcNAc; beta-D-galactsyl-(1->3)-N-acetyl-D-glucosamine; beta-D-galactosyl-(1->3)-N-acetyl-D-glucosamine; beta-D-Gal-(1->3)-D-GlcNAc; beta-D-Gal-(1->3)-D-GlcNAc; 2-acetamido-2-deoxy-3-O-beta-D-galactopyranosyl-D-glucopyranose

> <IUPAC_NAME>
beta-D-galactopyranosyl-(1->3)-2-acetamido-2-deoxy-D-glucopyranose

> <FORMULA>
C14H25NO11; C14H25NO11

> <MASS>
383.350

> <MONOISOTOPIC_MASS>
383.14276

> <CHARGE>
0

> <SMILES>
[C@@H]1(O)[C@H](O)[C@H]([C@H](O[C@@H]2[C@H](C(O[C@@H]([C@H]2O)CO)O)NC(C)=O)O[C@@H]1CO)O

> <INCHI>
InChI=1S/C14H25NO11/c1-4(18)15-7-12(9(20)6(3-17)24-13(7)23)26-14-11(22)10(21)8(19)5(2-16)25-14/h5-14,16-17,19-23H,2-3H2,1H3,(H,15,18)/t5-,6-,7-,8+,9-,10+,11-,12-,13?,14+/m1/s1

> <INCHIKEY>
HMQPEDMEOBLSQB-RPHKZZMBSA-N

> <BEILSTEIN_REGISTRY_NUMBER>
1356092

> <REAXYS_REGISTRY_NUMBER>
1356092

> <KEGG_COMPOUND_ACCESSION>
C06372

> <KEGG_GLYCAN_ACCESSION>
G00284

> <PUBMED_CITATION>
10328550; 1373551; 17690443; 18723650; 19124470; 1933953; 19420691; 19850285; 19854932; 19913595; 20830443; 21154671; 2457603; 2458640; 2470785; 24942885; 26477523; 4112563; 7696864; 2432147

$$$$

Marvin  10180723392D          

  6  5  0  0  0  0            999 V2000
   -1.4290   -0.1650    0.0000 C   0  0  0  0  0  0  0  0  0  0  0  0
   -0.7146    0.2475    0.0000 C   0  0  0  0  0  0  0  0  0  0  0  0
    0.0000   -0.1650    0.0000 O   0  0  0  0  0  0  0  0  0  0  0  0
    0.7146    0.2475    0.0000 C   0  0  0  0  0  0  0  0  0  0  0  0
    1.4290   -0.1650    0.0000 C   0  0  0  0  0  0  0  0  0  0  0  0
   -0.7146    1.0726    0.0000 O   0  0  0  0  0  0  0  0  0  0  0  0
  1  2  1  0  0  0  0
  6  2  2  0  0  0  0
  3  2  1  0  0  0  0
  4  3  1  0  0  0  0
  5  4  1  0  0  0  0
M  END
> <ID>
CHEBI:27750

> <NAME>
ethyl acetate

> <DEFINITION>
The acetate ester formed between acetic acid and ethanol.

> <STAR>
3

> <SECONDARY_ID>
CHEBI:42244; CHEBI:2389; CHEBI:23989

> <SYNONYM>
vinegar naphtha; EtOAc; Ethylazetat; Ethylacetat; ethyl ethanoate; ethyl acetic ester; ethyl acetate; ETHYL ACETATE; Ethyl acetate; Essigsaeureethylester; Essigester; CH3-CO-O-CH3; AcOEt; Acetyl ester; acetoxyethane; acetic ester; acetic acid, ethyl ester; acetic acid ethyl ester; 1-acetoxyethane

> <IUPAC_NAME>
ethyl acetate

> <FORMULA>
C4H8O2

> <MASS>
88.10512

> <MONOISOTOPIC_MASS>
88.05243

> <CHARGE>
0

> <SMILES>
CCOC(C)=O

> <INCHI>
InChI=1S/C4H8O2/c1-3-6-4(2)5/h3H2,1-2H3

> <INCHIKEY>
XEKOWRVHYACXOJ-UHFFFAOYSA-N

> <BEILSTEIN_REGISTRY_NUMBER>
506104

> <CAS_REGISTRY_NUMBER>
141-78-6

> <GMELIN_REGISTRY_NUMBER>
26306

> <REAXYS_REGISTRY_NUMBER>
506104

> <CHEMIDPLUS>
141-78-6

> <HMDB_ACCESSION>
HMDB0031217

> <KEGG_COMPOUND_ACCESSION>
C00849

> <KEGG_DRUG_ACCESSION>
D02319

> <KNAPSACK_ACCESSION>
C00001308

> <NIST_CHEMISTRY_WEBBOOK>
141-78-6

> <PDBECHEM_ACCESSION>
EEE

> <WIKIPEDIA_ACCESSION>
Ethyl_acetate

> <PUBMED_CITATION>
11684179; 15497757; 21764274; 21797203; 23078109; 23089728; 23108979; 23351147; 23614288

$$$$
ChEBI
  Marvin  02141117022D          

 18 18  0  0  0  0            999 V2000
    4.9588   -3.4758    0.0000 C   0  0  0  0  0  0  0  0  0  0  0  0
    5.7839   -3.4758    0.0000 C   0  0  0  0  0  0  0  0  0  0  0  0
    4.5467   -4.1905    0.0000 C   0  0  0  0  0  0  0  0  0  0  0  0
    4.9588   -4.9045    0.0000 C   0  0  0  0  0  0  0  0  0  0  0  0
    6.1959   -4.1905    0.0000 C   0  0  0  0  0  0  0  0  0  0  0  0
    5.7839   -4.9045    0.0000 C   0  0  0  0  0  0  0  0  0  0  0  0
    3.7224   -4.1905    0.0000 O   0  0  0  0  0  0  0  0  0  0  0  0
    7.0053   -4.1905    0.0000 N   0  3  0  0  0  0  0  0  0  0  0  0
    3.3095   -4.9045    0.0000 P   0  0  0  0  0  0  0  0  0  0  0  0
    2.5956   -4.4923    0.0000 O   0  0  0  0  0  0  0  0  0  0  0  0
    4.0243   -5.3165    0.0000 O   0  0  0  0  0  0  0  0  0  0  0  0
    2.8975   -5.6184    0.0000 O   0  0  0  0  0  0  0  0  0  0  0  0
    2.0724   -5.6184    0.0000 C   0  0  0  0  0  0  0  0  0  0  0  0
    1.6603   -6.3331    0.0000 C   0  0  0  0  0  0  0  0  0  0  0  0
    2.5956   -3.6673    0.0000 C   0  0  0  0  0  0  0  0  0  0  0  0
    1.8818   -3.2583    0.0000 C   0  0  0  0  0  0  0  0  0  0  0  0
    7.4331   -3.4758    0.0000 O   0  0  0  0  0  0  0  0  0  0  0  0
    7.4331   -4.9045    0.0000 O   0  5  0  0  0  0  0  0  0  0  0  0
  1  2  1  0  0  0  0
  1  3  2  0  0  0  0
  2  5  2  0  0  0  0
  3  4  1  0  0  0  0
  3  7  1  0  0  0  0
  4  6  2  0  0  0  0
  5  6  1  0  0  0  0
  5  8  1  0  0  0  0
  7  9  1  0  0  0  0
  8 17  2  0  0  0  0
  8 18  1  0  0  0  0
  9 10  1  0  0  0  0
  9 11  2  0  0  0  0
  9 12  1  0  0  0  0
 10 15  1  0  0  0  0
 12 13  1  0  0  0  0
 13 14  1  0  0  0  0
 15 16  1  0  0  0  0
M  CHG  2   8   1  18  -1
M  END
> <ID>
CHEBI:27827

> <NAME>
paraoxon

> <DEFINITION>
An aryl dialkyl phosphate where both the alkyl groups are ethyl and the aryl group is 4-nitrophenyl.

> <STAR>
3

> <SECONDARY_ID>
CHEBI:7924; CHEBI:25855

> <SYNONYM>
phosphoric acid diethyl 4-nitrophenyl ester; phosphacol; paraoxon; Paraoxon; p-nitrophenyl diethyl phosphate; O,O-diethyl O-p-nitrophenyl phosphate; ethyl paraoxon; diethyl paraoxon; diethyl p-nitrophenyl phosphate

> <IUPAC_NAME>
diethyl 4-nitrophenyl phosphate

> <FORMULA>
C10H14NO6P

> <MASS>
275.19500

> <MONOISOTOPIC_MASS>
275.05587

> <CHARGE>
0

> <SMILES>
CCOP(=O)(OCC)Oc1ccc(cc1)[N+]([O-])=O

> <INCHI>
InChI=1S/C10H14NO6P/c1-3-15-18(14,16-4-2)17-10-7-5-9(6-8-10)11(12)13/h5-8H,3-4H2,1-2H3

> <INCHIKEY>
WYMSBXTXOHUIGT-UHFFFAOYSA-N

> <BEILSTEIN_REGISTRY_NUMBER>
1915526

> <CAS_REGISTRY_NUMBER>
311-45-5

> <GMELIN_REGISTRY_NUMBER>
51821

> <REAXYS_REGISTRY_NUMBER>
1915526

> <CHEMIDPLUS>
311-45-5

> <KEGG_COMPOUND_ACCESSION>
C06606

> <WIKIPEDIA_ACCESSION>
Paraoxon

> <PUBMED_CITATION>
24149933; 24220671; 24357355; 24384224; 24413757; 24486155; 24598740

$$$$
ChEBI


 11 11  0  0  1  0  0  0  0  0  1 V2000
   10.3157  -18.9620    0.0000 C   0  0  0  0  0  0  0  0  0  0  0  0
   10.3157  -20.2920    0.0000 C   0  0  0  0  0  0  0  0  0  0  0  0
    9.1639  -18.2970    0.0000 O   0  0  0  0  0  0  0  0  0  0  0  0
    9.1639  -20.9570    0.0000 C   0  0  0  0  0  0  0  0  0  0  0  0
    8.0121  -18.9620    0.0000 C   0  0  0  0  0  0  0  0  0  0  0  0
    8.0121  -20.2920    0.0000 C   0  0  0  0  0  0  0  0  0  0  0  0
   11.4675  -18.2970    0.0000 O   0  0  0  0  0  0  0  0  0  0  0  0
   11.4675  -20.9570    0.0000 O   0  0  0  0  0  0  0  0  0  0  0  0
    9.1638  -22.2870    0.0000 O   0  0  0  0  0  0  0  0  0  0  0  0
    6.8603  -20.9570    0.0000 O   0  0  0  0  0  0  0  0  0  0  0  0
    6.8603  -18.2970    0.0000 C   0  0  0  0  0  0  0  0  0  0  0  0
  1  2  1  0  0  0  0
  1  3  1  0  0  0  0
  2  4  1  0  0  0  0
  3  5  1  0  0  0  0
  4  6  1  0  0  0  0
  5  6  1  0  0  0  0
  1  7  1  1  0  0  0
  2  8  1  6  0  0  0
  4  9  1  6  0  0  0
  6 10  1  1  0  0  0
  5 11  1  6  0  0  0
M  END
> <ID>
CHEBI:27907

> <NAME>
alpha-L-rhamnopyranose

> <DEFINITION>
An L-rhamnopyranose having α-configuration at the anomeric centre.

> <STAR>
3

> <SECONDARY_ID>
CHEBI:45460; CHEBI:45196; CHEBI:10293; CHEBI:22425

> <SYNONYM>
alpha-L-Rhap; alpha-L-rhamnose; alpha-L-rhamnose; alpha-L-Rhamnose; alpha-L-Rha; alpha-L-Mannomethylose; alpha-6-Deoxy-L-mannose

> <IUPAC_NAME>
alpha-L-rhamnopyranose; 6-deoxy-alpha-L-mannopyranose

> <FORMULA>
C6H12O5

> <MASS>
164.15648

> <MONOISOTOPIC_MASS>
164.06847

> <CHARGE>
0

> <SMILES>
C[C@@H]1O[C@@H](O)[C@H](O)[C@H](O)[C@H]1O

> <INCHI>
InChI=1S/C6H12O5/c1-2-3(7)4(8)5(9)6(10)11-2/h2-10H,1H3/t2-,3-,4+,5+,6+/m0/s1

> <INCHIKEY>
SHZGCJCMOBCMKK-HGVZOGFYSA-N

> <REAXYS_REGISTRY_NUMBER>
1680354

> <KEGG_COMPOUND_ACCESSION>
C02476

> <KNAPSACK_ACCESSION>
C00001129

> <PDBECHEM_ACCESSION>
RAM

> <PUBMED_CITATION>
19443021; 23795894; 23836132; 25568069; 27091615; 31537530; 7521740

$$$$

Marvin  03310812362D          

 13 13  0  0  1  0            999 V2000
    0.0000    0.0000    0.0000 O   0  0  0  0  0  0  0  0  0  0  0  0
   -0.8974   -1.9370    0.0000 O   0  0  0  0  0  0  0  0  0  0  0  0
    0.8974   -1.9370    0.0000 O   0  0  0  0  0  0  0  0  0  0  0  0
    0.6674   -0.4849    0.0000 C   0  0  0  0  0  0  0  0  0  0  0  0
    1.4521   -0.2300    0.0000 O   0  0  0  0  0  0  0  0  0  0  0  0
    0.4125   -1.2695    0.0000 C   0  0  0  0  0  0  0  0  0  0  0  0
   -0.4125   -1.2695    0.0000 C   0  0  0  0  0  0  0  0  0  0  0  0
   -2.8109   -0.0724    0.0000 O   0  0  0  0  0  0  0  0  0  0  0  0
   -2.0964   -0.4849    0.0000 C   0  0  0  0  0  0  0  0  0  0  0  0
   -1.3819   -0.0724    0.0000 C   0  0  2  0  0  0  0  0  0  0  0  0
   -1.3819    0.7526    0.0000 O   0  0  0  0  0  0  0  0  0  0  0  0
   -0.6674   -0.4849    0.0000 C   0  0  1  0  0  0  0  0  0  0  0  0
   -1.3819   -0.8974    0.0000 H   0  0  0  0  0  0  0  0  0  0  0  0
  1  4  1  0  0  0  0
 12  1  1  0  0  0  0
  7  2  2  0  0  0  0
  6  3  2  0  0  0  0
  4  5  2  0  0  0  0
  4  6  1  0  0  0  0
  6  7  1  0  0  0  0
 12  7  1  0  0  0  0
  8  9  1  0  0  0  0
  9 10  1  0  0  0  0
 10 12  1  0  0  0  0
 10 11  1  6  0  0  0
 12 13  1  6  0  0  0
M  END
> <ID>
CHEBI:27956

> <NAME>
L-dehydroascorbic acid

> <DEFINITION>
Dehydroascorbic acid having the L-configuration.

> <STAR>
3

> <SECONDARY_ID>
CHEBI:21280; CHEBI:21279; CHEBI:6210

> <SYNONYM>
oxidized vitamin C; oxidized ascorbic acid; L-threo-hexo-2,3-diulosono-1,4-lactone; L-threo-2,3-hexodiulosonic acid, gamma-lactone; L-Dehydroascorbic acid; L-Dehydroascorbate; L-Dehydroascorbate; DHAA; Dehydroascorbic acid; dehydroascorbic acid; dehydro-L-ascorbic acid

> <IUPAC_NAME>
(5R)-5-[(1S)-1,2-dihydroxyethyl]furan-2,3,4(5H)-trione

> <FORMULA>
C6H6O6

> <MASS>
174.10824

> <MONOISOTOPIC_MASS>
174.01644

> <CHARGE>
0

> <SMILES>
[H][C@@]1(OC(=O)C(=O)C1=O)[C@@H](O)CO

> <INCHI>
InChI=1S/C6H6O6/c7-1-2(8)5-3(9)4(10)6(11)12-5/h2,5,7-8H,1H2/t2-,5+/m0/s1

> <INCHIKEY>
SBJKKFFYIZUCET-JLAZNSOCSA-N

> <BEILSTEIN_REGISTRY_NUMBER>
84277

> <CAS_REGISTRY_NUMBER>
490-83-5

> <GMELIN_REGISTRY_NUMBER>
51038

> <REAXYS_REGISTRY_NUMBER>
84277

> <CHEMIDPLUS>
490-83-5

> <KEGG_COMPOUND_ACCESSION>
C05422

> <KNAPSACK_ACCESSION>
C00007380

> <PUBMED_CITATION>
15013385; 18813862; 23543734; 9506998

$$$$

Marvin  02240613532D          

 24 27  0  0  1  0            999 V2000
    1.8036   -0.1138    0.0000 C   0  0  0  0  0  0  0  0  0  0  0  0
    0.3045   -1.0964    0.0000 C   0  0  0  0  0  0  0  0  0  0  0  0
    1.8036    1.2211    0.0000 C   0  0  2  0  0  0  0  0  0  0  0  0
    0.3045    1.3786    0.0000 C   0  0  0  0  0  0  0  0  0  0  0  0
    2.2885    0.5536    0.0000 C   0  0  2  0  0  0  0  0  0  0  0  0
   -1.1245   -0.2714    0.0000 C   0  0  0  0  0  0  0  0  0  0  0  0
   -0.4100    0.9661    0.0000 C   0  0  0  0  0  0  0  0  0  0  0  0
   -0.4100   -1.5089    0.0000 C   0  0  0  0  0  0  0  0  0  0  0  0
    2.0585    2.0057    0.0000 O   0  0  0  0  0  0  0  0  0  0  0  0
    3.1135    0.5536    0.0000 O   0  0  0  0  0  0  0  0  0  0  0  0
   -1.1245   -1.0964    0.0000 C   0  0  0  0  0  0  0  0  0  0  0  0
   -1.8390    0.1411    0.0000 C   0  0  0  0  0  0  0  0  0  0  0  0
   -1.8390   -1.5089    0.0000 C   0  0  0  0  0  0  0  0  0  0  0  0
   -2.5534   -0.2714    0.0000 C   0  0  0  0  0  0  0  0  0  0  0  0
   -2.5534   -1.0964    0.0000 C   0  0  0  0  0  0  0  0  0  0  0  0
   -3.2679   -1.5089    0.0000 O   0  0  0  0  0  0  0  0  0  0  0  0
    0.3045   -0.2714    0.0000 C   0  0  2  0  0  0  0  0  0  0  0  0
    0.3045    0.5536    0.0000 H   0  0  0  0  0  0  0  0  0  0  0  0
   -0.4100    0.1411    0.0000 C   0  0  1  0  0  0  0  0  0  0  0  0
   -0.4100   -0.6839    0.0000 H   0  0  0  0  0  0  0  0  0  0  0  0
    1.0189    0.9661    0.0000 C   0  0  2  0  0  0  0  0  0  0  0  0
    1.0189    1.7911    0.0000 C   0  0  0  0  0  0  0  0  0  0  0  0
    1.0189    0.1411    0.0000 C   0  0  1  0  0  0  0  0  0  0  0  0
    1.0189   -0.6839    0.0000 H   0  0  0  0  0  0  0  0  0  0  0  0
 23 17  1  0  0  0  0
 23 21  1  0  0  0  0
 23  1  1  0  0  0  0
 17 19  1  0  0  0  0
 17  2  1  0  0  0  0
 21  3  1  0  0  0  0
 21  4  1  0  0  0  0
  5  1  1  0  0  0  0
 19  6  1  0  0  0  0
 19  7  1  0  0  0  0
  2  8  1  0  0  0  0
  3  9  1  1  0  0  0
  5 10  1  6  0  0  0
  6 11  2  0  0  0  0
  6 12  1  0  0  0  0
 11 13  1  0  0  0  0
 12 14  2  0  0  0  0
 13 15  2  0  0  0  0
 15 16  1  0  0  0  0
  3  5  1  0  0  0  0
  4  7  1  0  0  0  0
  8 11  1  0  0  0  0
 14 15  1  0  0  0  0
 17 18  1  1  0  0  0
 19 20  1  6  0  0  0
 21 22  1  1  0  0  0
 23 24  1  6  0  0  0
M  END
> <ID>
CHEBI:27974

> <NAME>
estriol

> <DEFINITION>
A 3-hydroxy steroid that is estra-1,3,5(10)-trien-3-ol substituted by additional hydroxy groups at positions 16 and 17 (16α,17β-stereoisomer).

> <STAR>
3

> <SECONDARY_ID>
CHEBI:42467; CHEBI:4869; CHEBI:23969

> <SYNONYM>
trihydroxyestrin; Oestriol; oestriol; ESTRIOL; Estriol; 3,16alpha,17beta-trihydroxy-Delta(1,3,5)-estratriene; 16alpha-hydroxyestradiol; 16-alpha,17-beta-estriol; 1,3,5(10)-Estratriene-3,16-alpha,17beta-triol; (16alpha,17beta)-estra-1,3,5(10)-triene-3,16,17-triol

> <IUPAC_NAME>
estra-1,3,5(10)-triene-3,16alpha,17beta-triol

> <BRAND_NAME>
Estriel; Deuslon-A

> <FORMULA>
C18H24O3

> <MASS>
288.38140

> <MONOISOTOPIC_MASS>
288.17254

> <CHARGE>
0

> <SMILES>
[H][C@]12CC[C@]3(C)[C@@H](O)[C@H](O)C[C@@]3([H])[C@]1([H])CCc1cc(O)ccc21

> <INCHI>
InChI=1S/C18H24O3/c1-18-7-6-13-12-5-3-11(19)8-10(12)2-4-14(13)15(18)9-16(20)17(18)21/h3,5,8,13-17,19-21H,2,4,6-7,9H2,1H3/t13-,14-,15+,16-,17+,18+/m1/s1

> <INCHIKEY>
PROQIPRRNZUXQM-ZXXIGWHRSA-N

> <BEILSTEIN_REGISTRY_NUMBER>
2508172

> <CAS_REGISTRY_NUMBER>
50-27-1

> <REAXYS_REGISTRY_NUMBER>
2508172

> <CHEMIDPLUS>
50-27-1

> <DRUGBANK_ACCESSION>
DB04573

> <HMDB_ACCESSION>
HMDB0000153

> <KEGG_COMPOUND_ACCESSION>
C05141

> <KEGG_DRUG_ACCESSION>
D00185

> <LINCS_ACCESSION>
LSM-2368

> <LIPID_MAPS_INSTANCE_ACCESSION>
LMST02010003

> <METACYC_ACCESSION>
ESTRIOL

> <NIST_CHEMISTRY_WEBBOOK>
50-27-1

> <PDBECHEM_ACCESSION>
ESL

> <WIKIPEDIA_ACCESSION>
Estriol

> <PUBMED_CITATION>
11133265; 23777262; 9373313

$$$$

Marvin  10010716592D          

 15 15  0  0  0  0            999 V2000
   -0.4363    1.0438    0.0000 O   0  0  0  0  0  0  0  0  0  0  0  0
    0.2776    0.6302    0.0000 C   0  0  1  0  0  0  0  0  0  0  0  0
    0.9920    1.0427    0.0000 O   0  0  0  0  0  0  0  0  0  0  0  0
   -1.1514    0.6323    0.0000 C   0  0  1  0  0  0  0  0  0  0  0  0
   -0.4387   -0.6063    0.0000 C   0  0  1  0  0  0  0  0  0  0  0  0
   -0.4387   -1.4313    0.0000 O   0  0  0  0  0  0  0  0  0  0  0  0
   -1.1526   -0.1927    0.0000 C   0  0  2  0  0  0  0  0  0  0  0  0
   -1.8670   -0.6052    0.0000 O   0  0  0  0  0  0  0  0  0  0  0  0
    0.2764   -0.1948    0.0000 C   0  0  1  0  0  0  0  0  0  0  0  0
   -1.8658    1.0448    0.0000 C   0  0  0  0  0  0  0  0  0  0  0  0
   -2.5803    0.6323    0.0000 O   0  0  0  0  0  0  0  0  0  0  0  0
    0.9908   -0.6073    0.0000 N   0  0  0  0  0  0  0  0  0  0  0  0
    1.7053    0.6302    0.0000 O   0  0  0  0  0  0  0  0  0  0  0  0
    1.7053   -0.1948    0.0000 C   0  0  0  0  0  0  0  0  0  0  0  0
    2.4198   -0.6073    0.0000 C   0  0  0  0  0  0  0  0  0  0  0  0
  1  4  1  0  0  0  0
  1  2  1  0  0  0  0
  4  7  1  0  0  0  0
  7  5  1  0  0  0  0
  5  9  1  0  0  0  0
  9  2  1  0  0  0  0
  2  3  1  1  0  0  0
  4 10  1  1  0  0  0
  5  6  1  1  0  0  0
  7  8  1  6  0  0  0
  9 12  1  6  0  0  0
 10 11  1  0  0  0  0
 12 14  1  0  0  0  0
 14 13  2  0  0  0  0
 14 15  1  0  0  0  0
M  END
> <ID>
CHEBI:28009

> <NAME>
N-acetyl-beta-D-glucosamine

> <DEFINITION>
An N-acetyl-D-glucosamine having β-configuration at the anomeric centre.

> <STAR>
3

> <SECONDARY_ID>
CHEBI:44166; CHEBI:7169; CHEBI:21579; CHEBI:7140

> <SYNONYM>
N-acetylglucosamine; N-Acetyl-D-glucosamine; N-acetyl-beta-D-glucosamine; N-Acetyl-beta-D-glucosamine; GlcNAc-beta; betaGlcNAc; Acetylglucosamine; 2-Acetylamino-2-deoxy-D-glucose; 2-Acetamido-2-deoxy-D-glucose

> <IUPAC_NAME>
2-acetamido-2-deoxyhexopyranose; 2-acetamido-2-deoxy-beta-D-glucopyranose

> <FORMULA>
C8H15NO6

> <MASS>
221.20780

> <MONOISOTOPIC_MASS>
221.08994

> <CHARGE>
0

> <SMILES>
CC(=O)N[C@H]1[C@H](O)O[C@H](CO)[C@@H](O)[C@@H]1O

> <INCHI>
InChI=1S/C8H15NO6/c1-3(11)9-5-7(13)6(12)4(2-10)15-8(5)14/h4-8,10,12-14H,2H2,1H3,(H,9,11)/t4-,5-,6-,7-,8-/m1/s1

> <INCHIKEY>
OVRNDRQMDRJTHS-FMDGEEDCSA-N

> <BEILSTEIN_REGISTRY_NUMBER>
1247660

> <CAS_REGISTRY_NUMBER>
7512-17-6

> <GMELIN_REGISTRY_NUMBER>
721281

> <REAXYS_REGISTRY_NUMBER>
1247660

> <CHEMIDPLUS>
7512-17-6

> <KEGG_COMPOUND_ACCESSION>
C03878

> <PDB_ACCESSION>
2Q86

> <PDBECHEM_ACCESSION>
NAG

> <PUBMED_CITATION>
15692805; 16537470; 17991151; 18295796; 19443021; 25568069; 31537530; 7521740

$$$$

Marvin  11230909442D          

 15 15  0  0  1  0            999 V2000
   13.0267  -14.4289    0.0000 O   0  0  0  0  0  0  0  0  0  0  0  0
   13.0267  -15.2539    0.0000 C   0  0  0  0  0  0  0  0  0  0  0  0
   13.7412  -15.6664    0.0000 O   0  0  0  0  0  0  0  0  0  0  0  0
   12.3122  -15.6664    0.0000 C   0  0  1  0  0  0  0  0  0  0  0  0
   12.3122  -16.4914    0.0000 N   0  0  0  0  0  0  0  0  0  0  0  0
   11.5978  -15.2539    0.0000 C   0  0  0  0  0  0  0  0  0  0  0  0
   10.8833  -15.6664    0.0000 C   0  0  0  0  0  0  0  0  0  0  0  0
   10.8833  -16.4914    0.0000 C   0  0  0  0  0  0  0  0  0  0  0  0
   10.1688  -15.2539    0.0000 C   0  0  0  0  0  0  0  0  0  0  0  0
    9.4543  -15.6664    0.0000 C   0  0  0  0  0  0  0  0  0  0  0  0
   10.1688  -16.9039    0.0000 C   0  0  0  0  0  0  0  0  0  0  0  0
    9.4543  -16.4914    0.0000 C   0  0  0  0  0  0  0  0  0  0  0  0
    8.7399  -16.9039    0.0000 O   0  0  0  0  0  0  0  0  0  0  0  0
   10.1688  -17.7289    0.0000 Cl  0  0  0  0  0  0  0  0  0  0  0  0
    8.7398  -15.2539    0.0000 Cl  0  0  0  0  0  0  0  0  0  0  0  0
  2  1  2  0  0  0  0
  3  2  1  0  0  0  0
  4  2  1  0  0  0  0
  4  5  1  1  0  0  0
  6  4  1  0  0  0  0
  7  6  1  0  0  0  0
  8  7  1  0  0  0  0
  9  7  2  0  0  0  0
 10  9  1  0  0  0  0
 11  8  2  0  0  0  0
 12 10  2  0  0  0  0
 11 12  1  0  0  0  0
 13 12  1  0  0  0  0
 14 11  1  0  0  0  0
 10 15  1  0  0  0  0
M  END
> <ID>
CHEBI:28016

> <NAME>
3,5-dichloro-L-tyrosine

> <DEFINITION>
A chloroamino acid that is L-tyrosine carrying chloro- substituents at positions C-3 and C-5 of the benzyl group.

> <STAR>
3

> <SECONDARY_ID>
CHEBI:19903; CHEBI:1400

> <SYNONYM>
DiClY; 3,5-dichlorotyrosine; 3,5-Dichloro-L-tyrosine

> <FORMULA>
C9H9Cl2NO3

> <MASS>
250.07900

> <MONOISOTOPIC_MASS>
248.99595

> <CHARGE>
0

> <SMILES>
N[C@@H](Cc1cc(Cl)c(O)c(Cl)c1)C(O)=O

> <INCHI>
InChI=1S/C9H9Cl2NO3/c10-5-1-4(2-6(11)8(5)13)3-7(12)9(14)15/h1-2,7,13H,3,12H2,(H,14,15)/t7-/m0/s1

> <INCHIKEY>
MPHURJQUHZHALJ-ZETCQYMHSA-N

> <KEGG_COMPOUND_ACCESSION>
C03347

> <PUBMED_CITATION>
15589368

$$$$

Marvin  09021015032D          

 23 24  0  0  1  0            999 V2000
   13.8115   -5.1041    0.0000 C   0  0  0  0  0  0  0  0  0  0  0  0
   13.8115   -5.9291    0.0000 C   0  0  1  0  0  0  0  0  0  0  0  0
   13.0970   -4.6916    0.0000 O   0  0  0  0  0  0  0  0  0  0  0  0
   13.0970   -6.3416    0.0000 C   0  0  2  0  0  0  0  0  0  0  0  0
   12.3825   -5.1041    0.0000 C   0  0  1  0  0  0  0  0  0  0  0  0
   12.3825   -5.9291    0.0000 C   0  0  1  0  0  0  0  0  0  0  0  0
   14.5260   -4.6916    0.0000 O   0  0  0  0  0  0  0  0  0  0  0  0
   14.5260   -6.3416    0.0000 O   0  0  0  0  0  0  0  0  0  0  0  0
   13.0970   -7.1666    0.0000 O   0  0  0  0  0  0  0  0  0  0  0  0
   11.6680   -6.3416    0.0000 O   0  0  0  0  0  0  0  0  0  0  0  0
   11.6680   -4.6916    0.0000 C   0  0  0  0  0  0  0  0  0  0  0  0
   10.9536   -5.1041    0.0000 O   0  0  0  0  0  0  0  0  0  0  0  0
   10.2391   -4.6916    0.0000 C   0  0  2  0  0  0  0  0  0  0  0  0
    9.5246   -5.1041    0.0000 C   0  0  1  0  0  0  0  0  0  0  0  0
   10.2391   -3.8666    0.0000 O   0  0  0  0  0  0  0  0  0  0  0  0
    8.8101   -4.6915    0.0000 C   0  0  2  0  0  0  0  0  0  0  0  0
    9.5246   -3.4541    0.0000 C   0  0  1  0  0  0  0  0  0  0  0  0
    8.8101   -3.8666    0.0000 C   0  0  2  0  0  0  0  0  0  0  0  0
    9.5246   -5.9291    0.0000 O   0  0  0  0  0  0  0  0  0  0  0  0
    8.0956   -5.1040    0.0000 O   0  0  0  0  0  0  0  0  0  0  0  0
    8.0957   -3.4540    0.0000 O   0  0  0  0  0  0  0  0  0  0  0  0
    9.5247   -2.6290    0.0000 C   0  0  0  0  0  0  0  0  0  0  0  0
    8.8102   -2.2165    0.0000 O   0  0  0  0  0  0  0  0  0  0  0  0
  1  2  1  0  0  0  0
  1  3  1  0  0  0  0
  2  4  1  0  0  0  0
  3  5  1  0  0  0  0
  4  6  1  0  0  0  0
  5  6  1  0  0  0  0
  1  7  1  0  0  0  0
  2  8  1  6  0  0  0
  4  9  1  1  0  0  0
  6 10  1  6  0  0  0
  5 11  1  1  0  0  0
 12 11  1  0  0  0  0
 13 14  1  0  0  0  0
 13 15  1  0  0  0  0
 14 16  1  0  0  0  0
 15 17  1  0  0  0  0
 16 18  1  0  0  0  0
 17 18  1  0  0  0  0
 13 12  1  6  0  0  0
 14 19  1  6  0  0  0
 16 20  1  1  0  0  0
 18 21  1  1  0  0  0
 17 22  1  1  0  0  0
 23 22  1  0  0  0  0
M  END
> <ID>
CHEBI:28053

> <NAME>
melibiose

> <DEFINITION>
A glycosylglucose formed by an α-(1→6)-linkage between D-galactose and D-glucose.

> <STAR>
3

> <SECONDARY_ID>
CHEBI:6733; CHEBI:60170; CHEBI:25182; CHEBI:20943

> <SYNONYM>
melibiose; Melibiose; Gal-alpha(1,6)Glc; D-mellibiose; D-Melibiose; alpha-D-Galp-(1->6)-D-Glcp; alpha-D-galactosyl-(1->6)-D-glucose; alpha-D-Gal-(1->6)-D-Glc; 6-O-alpha-D-galactopyranosyl-D-glucopyranose; 6-O-(alpha-D-Galactopyranosyl)-D-glucopyranose; (Gal)1 (Glc)1

> <IUPAC_NAME>
alpha-D-galactopyranosyl-(1->6)-D-glucopyranose

> <FORMULA>
C12H22O11; C12H22O11

> <MASS>
342.29650

> <MONOISOTOPIC_MASS>
342.11621

> <CHARGE>
0

> <SMILES>
OC[C@H]1O[C@H](OC[C@H]2OC(O)[C@H](O)[C@@H](O)[C@@H]2O)[C@H](O)[C@@H](O)[C@H]1O

> <INCHI>
InChI=1S/C12H22O11/c13-1-3-5(14)8(17)10(19)12(23-3)21-2-4-6(15)7(16)9(18)11(20)22-4/h3-20H,1-2H2/t3-,4-,5+,6-,7+,8+,9-,10-,11?,12+/m1/s1

> <INCHIKEY>
DLRVVLDZNNYCBX-ABXHMFFYSA-N

> <BEILSTEIN_REGISTRY_NUMBER>
1292781

> <CAS_REGISTRY_NUMBER>
585-99-9

> <GMELIN_REGISTRY_NUMBER>
887780

> <REAXYS_REGISTRY_NUMBER>
1292781

> <CHEMIDPLUS>
585-99-9

> <HMDB_ACCESSION>
HMDB0000048

> <KEGG_COMPOUND_ACCESSION>
C05402

> <KEGG_GLYCAN_ACCESSION>
G01275

> <KNAPSACK_ACCESSION>
C00001142

> <METACYC_ACCESSION>
MELIBIOSE

> <WIKIPEDIA_ACCESSION>
Melibiose

> <PUBMED_CITATION>
12797744; 17006649; 17724458; 19846069; 19913595; 27577255; 27794607; 28453942; 3290105; 718021; 7524207

$$$$
ChEBI
  Marvin  09190713152D          

 21 21  0  0  1  0            999 V2000
   11.5568   -6.4045    0.0000 C   0  0  1  0  0  0  0  0  0  0  0  0
   12.2723   -5.1723    0.0000 O   0  0  0  0  0  0  0  0  0  0  0  0
   10.8414   -5.1723    0.0000 C   0  0  1  0  0  0  0  0  0  0  0  0
   12.2723   -6.8187    0.0000 C   0  0  2  0  0  0  0  0  0  0  0  0
   10.8414   -6.8187    0.0000 N   0  0  0  0  0  0  0  0  0  0  0  0
   12.9808   -5.5795    0.0000 C   0  0  0  0  0  0  0  0  0  0  0  0
   10.8448   -4.3473    0.0000 C   0  0  1  0  0  0  0  0  0  0  0  0
   10.1294   -5.5795    0.0000 O   0  0  0  0  0  0  0  0  0  0  0  0
   12.9808   -6.4045    0.0000 C   0  0  0  0  0  0  0  0  0  0  0  0
   12.2723   -7.6402    0.0000 O   0  0  0  0  0  0  0  0  0  0  0  0
   10.8448   -7.6367    0.0000 C   0  0  0  0  0  0  0  0  0  0  0  0
   13.5627   -4.9943    0.0000 C   0  0  0  0  0  0  0  0  0  0  0  0
   10.1294   -3.9331    0.0000 C   0  0  0  0  0  0  0  0  0  0  0  0
   11.5568   -3.9331    0.0000 O   0  0  0  0  0  0  0  0  0  0  0  0
   10.1363   -8.0475    0.0000 C   0  0  0  0  0  0  0  0  0  0  0  0
   11.5534   -8.0441    0.0000 O   0  0  0  0  0  0  0  0  0  0  0  0
   14.3602   -5.2030    0.0000 O   0  0  0  0  0  0  0  0  0  0  0  0
   13.3402   -4.2001    0.0000 O   0  0  0  0  0  0  0  0  0  0  0  0
   10.1294   -3.1116    0.0000 O   0  0  0  0  0  0  0  0  0  0  0  0
   11.5568   -5.5795    0.0000 C   0  0  1  0  0  0  0  0  0  0  0  0
   11.5568   -4.7545    0.0000 H   0  0  0  0  0  0  0  0  0  0  0  0
 20  1  1  0  0  0  0
 20  2  1  0  0  0  0
 20  3  1  0  0  0  0
  1  4  1  0  0  0  0
  1  5  1  1  0  0  0
  2  6  1  0  0  0  0
  3  7  1  0  0  0  0
  3  8  1  6  0  0  0
  4  9  1  0  0  0  0
  4 10  1  6  0  0  0
  5 11  1  0  0  0  0
  6 12  1  0  0  0  0
  7 13  1  0  0  0  0
  7 14  1  1  0  0  0
 11 15  1  0  0  0  0
 11 16  2  0  0  0  0
 12 17  1  0  0  0  0
 12 18  2  0  0  0  0
 13 19  1  0  0  0  0
  6  9  2  0  0  0  0
 20 21  1  1  0  0  0
M  END
> <ID>
CHEBI:28062

> <NAME>
2-deoxy-2,3-dehydro-N-acetylneuraminic acid

> <DEFINITION>
N-Acetylneuraminic acid reduced across the 2,3-bond with loss of the hydroxy group at C-2; it is a minor component of body fluids although abundant in sialuria.

> <STAR>
3

> <SECONDARY_ID>
CHEBI:19548; CHEBI:1073

> <SYNONYM>
Neu2en5Ac; 2-Deoxy-2,3-dehydro-N-acetylneuraminic acid

> <IUPAC_NAME>
5-acetamido-2,6-anhydro-3,5-dideoxy-D-glycero-D-galacto-non-2-enonic acid

> <FORMULA>
C11H17NO8

> <MASS>
291.25462

> <MONOISOTOPIC_MASS>
291.09542

> <CHARGE>
0

> <SMILES>
[H][C@]1(OC(=C[C@H](O)[C@H]1NC(C)=O)C(O)=O)[C@H](O)[C@H](O)CO

> <INCHI>
InChI=1S/C11H17NO8/c1-4(14)12-8-5(15)2-7(11(18)19)20-10(8)9(17)6(16)3-13/h2,5-6,8-10,13,15-17H,3H2,1H3,(H,12,14)(H,18,19)/t5-,6+,8+,9+,10+/m0/s1

> <INCHIKEY>
JINJZWSZQKHCIP-UFGQHTETSA-N

> <BEILSTEIN_REGISTRY_NUMBER>
1324941

> <CAS_REGISTRY_NUMBER>
24967-27-9

> <REAXYS_REGISTRY_NUMBER>
1324941

> <CHEMIDPLUS>
24967-27-9

> <KEGG_COMPOUND_ACCESSION>
C04580

> <PDBECHEM_ACCESSION>
DAN

> <PUBMED_CITATION>
11746676

$$$$
ChEBI


 23 24  0  0  0  0  0  0  0  0  1 V2000
   11.4684   -9.3860    0.0000 C   0  0  0  0  0  0  0  0  0  0  0  0
   11.4684  -10.7160    0.0000 C   0  0  0  0  0  0  0  0  0  0  0  0
   10.3165   -8.7210    0.0000 O   0  0  0  0  0  0  0  0  0  0  0  0
   10.3165  -11.3810    0.0000 C   0  0  0  0  0  0  0  0  0  0  0  0
    9.1647   -9.3860    0.0000 C   0  0  0  0  0  0  0  0  0  0  0  0
    9.1647  -10.7160    0.0000 C   0  0  0  0  0  0  0  0  0  0  0  0
   12.6202   -8.7210    0.0000 O   0  0  0  0  0  0  0  0  0  0  0  0
   12.6202  -11.3810    0.0000 O   0  0  0  0  0  0  0  0  0  0  0  0
   10.3165  -12.7110    0.0000 O   0  0  0  0  0  0  0  0  0  0  0  0
    8.0129  -11.3810    0.0000 O   0  0  0  0  0  0  0  0  0  0  0  0
    8.0129   -8.7210    0.0000 C   0  0  0  0  0  0  0  0  0  0  0  0
    6.8611   -9.3860    0.0000 O   0  0  0  0  0  0  0  0  0  0  0  0
   17.2275   -8.7210    0.0000 C   0  0  0  0  0  0  0  0  0  0  0  0
   17.2275  -10.0510    0.0000 C   0  0  0  0  0  0  0  0  0  0  0  0
   16.0756   -8.0560    0.0000 O   0  0  0  0  0  0  0  0  0  0  0  0
   16.0756  -10.7160    0.0000 C   0  0  0  0  0  0  0  0  0  0  0  0
   14.9238   -8.7210    0.0000 C   0  0  0  0  0  0  0  0  0  0  0  0
   14.9238  -10.0510    0.0000 C   0  0  0  0  0  0  0  0  0  0  0  0
   18.3793   -8.0560    0.0000 O   0  0  0  0  0  0  0  0  0  0  0  0
   18.3793  -10.7160    0.0000 O   0  0  0  0  0  0  0  0  0  0  0  0
   16.0756  -12.0460    0.0000 O   0  0  0  0  0  0  0  0  0  0  0  0
   13.7720  -10.7160    0.0000 O   0  0  0  0  0  0  0  0  0  0  0  0
   13.7720   -8.0560    0.0000 C   0  0  0  0  0  0  0  0  0  0  0  0
  1  2  1  0  0  0  0
  1  3  1  0  0  0  0
  2  4  1  0  0  0  0
  3  5  1  0  0  0  0
  4  6  1  0  0  0  0
  5  6  1  0  0  0  0
  1  7  1  1  0  0  0
  2  8  1  6  0  0  0
  4  9  1  1  0  0  0
  6 10  1  6  0  0  0
  5 11  1  1  0  0  0
 12 11  1  0  0  0  0
 13 14  1  0  0  0  0
 13 15  1  0  0  0  0
 14 16  1  0  0  0  0
 15 17  1  0  0  0  0
 16 18  1  0  0  0  0
 17 18  1  0  0  0  0
 13 19  1  4  0  0  0
 14 20  1  6  0  0  0
 16 21  1  1  0  0  0
 18 22  1  6  0  0  0
 17 23  1  1  0  0  0
  7 23  1  0  0  0  0
M  END
> <ID>
CHEBI:28066

> <NAME>
gentiobiose

> <DEFINITION>
A glycosylglucose consisting of two D-glucopyranose units connected by a β-(1→6)-linkage.

> <STAR>
3

> <SECONDARY_ID>
CHEBI:60806; CHEBI:5318; CHEBI:24214

> <SYNONYM>
Gentiobiose; D-Glc(beta1->6)D-Glc; beta-D-glucosyl-(1->6)-D-glucose; beta-D-glucopyranosyl-(1->6)-D-glucose; beta-D-Glcp-(1->6)-D-Glcp; beta-D-Glc-(1->6)-D-Glc; 6-O-beta-D-glucopyranosyl-D-glucose; 6-O-beta-D-glucopyranosyl-D-glucopyranose

> <IUPAC_NAME>
beta-D-glucopyranosyl-(1->6)-D-glucopyranose

> <FORMULA>
C12H22O11

> <MASS>
342.29648

> <MONOISOTOPIC_MASS>
342.11621

> <CHARGE>
0

> <SMILES>
OC[C@H]1O[C@@H](OC[C@H]2OC(O)[C@H](O)[C@@H](O)[C@@H]2O)[C@H](O)[C@@H](O)[C@@H]1O

> <INCHI>
InChI=1S/C12H22O11/c13-1-3-5(14)8(17)10(19)12(23-3)21-2-4-6(15)7(16)9(18)11(20)22-4/h3-20H,1-2H2/t3-,4-,5-,6-,7+,8+,9-,10-,11?,12-/m1/s1

> <INCHIKEY>
DLRVVLDZNNYCBX-CQUJWQHSSA-N

> <CAS_REGISTRY_NUMBER>
554-91-6

> <REAXYS_REGISTRY_NUMBER>
4875396

> <CHEMIDPLUS>
554-91-6

> <KEGG_COMPOUND_ACCESSION>
C08240

> <WIKIPEDIA_ACCESSION>
Gentiobiose

> <PUBMED_CITATION>
24274485; 24338885; 4640505; 7536675

$$$$
ChEBI


 10 10  0  0  1  0  0  0  0  0  1 V2000
   14.2745  -14.4527    0.0000 C   0  0  0  0  0  0  0  0  0  0  0  0
   14.2745  -15.7827    0.0000 C   0  0  0  0  0  0  0  0  0  0  0  0
   13.1226  -13.7877    0.0000 O   0  0  0  0  0  0  0  0  0  0  0  0
   13.1226  -16.4477    0.0000 C   0  0  0  0  0  0  0  0  0  0  0  0
   11.9708  -14.4527    0.0000 C   0  0  0  0  0  0  0  0  0  0  0  0
   11.9708  -15.7827    0.0000 C   0  0  0  0  0  0  0  0  0  0  0  0
   15.4263  -13.7877    0.0000 O   0  0  0  0  0  0  0  0  0  0  0  0
   15.4263  -16.4477    0.0000 O   0  0  0  0  0  0  0  0  0  0  0  0
   13.1226  -17.7777    0.0000 O   0  0  0  0  0  0  0  0  0  0  0  0
   10.8190  -16.4477    0.0000 O   0  0  0  0  0  0  0  0  0  0  0  0
  1  2  1  0  0  0  0
  1  3  1  0  0  0  0
  2  4  1  0  0  0  0
  3  5  1  0  0  0  0
  4  6  1  0  0  0  0
  5  6  1  0  0  0  0
  1  7  1  1  0  0  0
  2  8  1  6  0  0  0
  4  9  1  1  0  0  0
  6 10  1  6  0  0  0
M  END
> <ID>
CHEBI:28161

> <NAME>
beta-D-xylose

> <STAR>
3

> <SECONDARY_ID>
CHEBI:10412; CHEBI:46538; CHEBI:22814

> <SYNONYM>
beta-D-xylose; beta-D-Xylose

> <IUPAC_NAME>
beta-D-xylopyranose

> <FORMULA>
C5H10O5

> <MASS>
150.12990

> <MONOISOTOPIC_MASS>
150.05282

> <CHARGE>
0

> <SMILES>
O[C@@H]1CO[C@@H](O)[C@H](O)[C@H]1O

> <INCHI>
InChI=1S/C5H10O5/c6-2-1-10-5(9)4(8)3(2)7/h2-9H,1H2/t2-,3+,4-,5-/m1/s1

> <INCHIKEY>
SRBFZHDQGSBBOR-KKQCNMDGSA-N

> <KEGG_COMPOUND_ACCESSION>
C02096

$$$$

Marvin  08170915342D          

 21 23  0  0  1  0            999 V2000
    0.9372   -0.2267    0.0000 N   0  0  0  0  0  0  0  0  0  0  0  0
    0.9372   -1.0517    0.0000 C   0  0  0  0  0  0  0  0  0  0  0  0
    0.2227   -1.4642    0.0000 N   0  0  0  0  0  0  0  0  0  0  0  0
    0.2226   -2.2892    0.0000 C   0  0  0  0  0  0  0  0  0  0  0  0
    0.9371   -2.7017    0.0000 N   0  0  0  0  0  0  0  0  0  0  0  0
    1.6516   -2.2892    0.0000 C   0  0  0  0  0  0  0  0  0  0  0  0
    1.6516   -1.4642    0.0000 C   0  0  0  0  0  0  0  0  0  0  0  0
    2.4362   -1.2093    0.0000 N   0  0  0  0  0  0  0  0  0  0  0  0
    2.9212   -1.8768    0.0000 C   0  0  0  0  0  0  0  0  0  0  0  0
    2.4362   -2.5442    0.0000 N   0  0  0  0  0  0  0  0  0  0  0  0
    2.6912   -3.3290    0.0000 C   0  0  2  0  0  0  0  0  0  0  0  0
    2.2062   -3.9963    0.0000 O   0  0  0  0  0  0  0  0  0  0  0  0
    2.6911   -4.6639    0.0000 C   0  0  2  0  0  0  0  0  0  0  0  0
    2.4361   -5.4485    0.0000 C   0  0  0  0  0  0  0  0  0  0  0  0
    2.9882   -6.0616    0.0000 O   0  0  0  0  0  0  0  0  0  0  0  0
    3.4757   -4.4089    0.0000 C   0  0  1  0  0  0  0  0  0  0  0  0
    4.1432   -4.8939    0.0000 O   0  0  0  0  0  0  0  0  0  0  0  0
    3.4758   -3.5839    0.0000 C   0  0  1  0  0  0  0  0  0  0  0  0
    4.1432   -3.0990    0.0000 O   0  0  0  0  0  0  0  0  0  0  0  0
    1.6517    0.1858    0.0000 C   0  0  0  0  0  0  0  0  0  0  0  0
    0.2227    0.1858    0.0000 C   0  0  0  0  0  0  0  0  0  0  0  0
  1  2  1  0  0  0  0
  2  3  1  0  0  0  0
  2  7  2  0  0  0  0
  3  4  2  0  0  0  0
  4  5  1  0  0  0  0
  5  6  2  0  0  0  0
  6  7  1  0  0  0  0
  6 10  1  0  0  0  0
  7  8  1  0  0  0  0
  8  9  2  0  0  0  0
  9 10  1  0  0  0  0
 11 10  1  1  0  0  0
 11 12  1  0  0  0  0
 11 18  1  0  0  0  0
 12 13  1  0  0  0  0
 13 14  1  1  0  0  0
 13 16  1  0  0  0  0
 14 15  1  0  0  0  0
 16 17  1  6  0  0  0
 16 18  1  0  0  0  0
 18 19  1  6  0  0  0
  1 20  1  0  0  0  0
  1 21  1  0  0  0  0
M  END
> <ID>
CHEBI:28284

> <NAME>
N(6),N(6)-dimethyladenosine

> <DEFINITION>
A methyladenosine compound with two methyl groups attached to N6 of the adenine nucleobase.

> <STAR>
3

> <SECONDARY_ID>
CHEBI:7404; CHEBI:21856

> <SYNONYM>
N6-Dimethyladenosine; N6,N6-Dimethyladenosine; N,N-Dimethyladenosine; N(6),N(6)-Dimethyladenosine; 6-N-Dimethyladenosine; 6-Dimethylaminopurine D-riboside; 6-Dimethyladenosine; 6-(Dimethylamino)purine riboside; 6-(Dimethylamino)purine ribonucleoside

> <IUPAC_NAME>
N,N-dimethyladenosine

> <FORMULA>
C12H17N5O4

> <MASS>
295.29450

> <MONOISOTOPIC_MASS>
295.12805

> <CHARGE>
0

> <SMILES>
CN(C)c1ncnc2n(cnc12)[C@@H]1O[C@H](CO)[C@@H](O)[C@H]1O

> <INCHI>
InChI=1S/C12H17N5O4/c1-16(2)10-7-11(14-4-13-10)17(5-15-7)12-9(20)8(19)6(3-18)21-12/h4-6,8-9,12,18-20H,3H2,1-2H3/t6-,8-,9-,12-/m1/s1

> <INCHIKEY>
WVGPGNPCZPYCLK-WOUKDFQISA-N

> <BEILSTEIN_REGISTRY_NUMBER>
93906

> <CAS_REGISTRY_NUMBER>
2620-62-4

> <CHEMIDPLUS>
2620-62-4

> <KEGG_COMPOUND_ACCESSION>
C03416

> <NIST_CHEMISTRY_WEBBOOK>
2620-62-4

> <PDBECHEM_ACCESSION>
26A

> <PUBMED_CITATION>
323854

$$$$

Marvin  12110615012D          

 46 51  0  0  0  0            999 V2000
   -3.2500    0.2313    0.0000 C   0  0  0  0  0  0  0  0  0  0  0  0
   -3.9645   -0.1812    0.0000 C   0  0  0  0  0  0  0  0  0  0  0  0
   -3.2500   -1.4188    0.0000 C   0  0  0  0  0  0  0  0  0  0  0  0
   -2.5355   -1.0063    0.0000 C   0  0  0  0  0  0  0  0  0  0  0  0
   -1.1066   -1.0063    0.0000 C   0  0  0  0  0  0  0  0  0  0  0  0
   -1.1066    1.4688    0.0000 C   0  0  0  0  0  0  0  0  0  0  0  0
   -1.8211    1.0563    0.0000 C   0  0  0  0  0  0  0  0  0  0  0  0
    0.3925   -0.0236    0.0000 C   0  0  0  0  0  0  0  0  0  0  0  0
    0.8774    0.6438    0.0000 C   0  0  0  0  0  0  0  0  0  0  0  0
   -2.5355   -0.1812    0.0000 C   0  0  2  0  0  0  0  0  0  0  0  0
   -2.5355    0.6438    0.0000 C   0  0  0  0  0  0  0  0  0  0  0  0
   -0.3921    1.0563    0.0000 C   0  0  1  0  0  0  0  0  0  0  0  0
   -0.3921    1.8813    0.0000 C   0  0  0  0  0  0  0  0  0  0  0  0
    0.3925    2.1362    0.0000 C   0  0  0  0  0  0  0  0  0  0  0  0
   -0.3220    2.5488    0.0000 C   0  0  0  0  0  0  0  0  0  0  0  0
    1.1069    2.5488    0.0000 C   0  0  0  0  0  0  0  0  0  0  0  0
    1.1069    3.3738    0.0000 C   0  0  0  0  0  0  0  0  0  0  0  0
   -0.3220    3.3738    0.0000 O   0  0  0  0  0  0  0  0  0  0  0  0
    0.3925    3.7863    0.0000 C   0  0  0  0  0  0  0  0  0  0  0  0
    0.3925    4.6113    0.0000 O   0  0  0  0  0  0  0  0  0  0  0  0
   -0.3921    0.2313    0.0000 C   0  0  2  0  0  0  0  0  0  0  0  0
   -0.3921   -0.5937    0.0000 O   0  0  0  0  0  0  0  0  0  0  0  0
   -1.8211    0.2313    0.0000 C   0  0  2  0  0  0  0  0  0  0  0  0
   -1.8211   -0.5937    0.0000 H   0  0  0  0  0  0  0  0  0  0  0  0
   -1.1066   -0.1812    0.0000 C   0  0  1  0  0  0  0  0  0  0  0  0
   -1.1066    0.6438    0.0000 C   0  0  0  0  0  0  0  0  0  0  0  0
   -3.9645   -1.0063    0.0000 C   0  0  1  0  0  0  0  0  0  0  0  0
   -1.8211   -1.4188    0.0000 C   0  0  1  0  0  0  0  0  0  0  0  0
   -1.8211   -2.2438    0.0000 O   0  0  0  0  0  0  0  0  0  0  0  0
   -1.1066   -3.4813    0.0000 C   0  0  0  0  0  0  0  0  0  0  0  0
   -1.1066   -2.6563    0.0000 C   0  0  0  0  0  0  0  0  0  0  0  0
   -0.3921   -2.2438    0.0000 O   0  0  0  0  0  0  0  0  0  0  0  0
    0.3925    1.3112    0.0000 C   0  0  1  0  0  0  0  0  0  0  0  0
    0.9758    1.8946    0.0000 H   0  0  0  0  0  0  0  0  0  0  0  0
   -4.6789   -1.4188    0.0000 O   0  0  0  0  0  0  0  0  0  0  0  0
   -5.3934   -1.8313    0.0000 C   0  0  2  0  0  0  0  0  0  0  0  0
   -6.1078   -1.4188    0.0000 O   0  0  0  0  0  0  0  0  0  0  0  0
   -6.1078   -3.0688    0.0000 C   0  0  2  0  0  0  0  0  0  0  0  0
   -6.1078   -3.8938    0.0000 O   0  0  0  0  0  0  0  0  0  0  0  0
   -5.3934   -2.6563    0.0000 C   0  0  1  0  0  0  0  0  0  0  0  0
   -4.6789   -3.0688    0.0000 O   0  0  0  0  0  0  0  0  0  0  0  0
   -6.8223   -2.6563    0.0000 C   0  0  2  0  0  0  0  0  0  0  0  0
   -7.5368   -3.0688    0.0000 O   0  0  0  0  0  0  0  0  0  0  0  0
   -6.8223   -1.8313    0.0000 C   0  0  1  0  0  0  0  0  0  0  0  0
   -7.5368   -1.4188    0.0000 C   0  0  0  0  0  0  0  0  0  0  0  0
   -8.2512   -1.8313    0.0000 O   0  0  0  0  0  0  0  0  0  0  0  0
  1  2  1  0  0  0  0
  1 10  1  0  0  0  0
  2 27  1  0  0  0  0
 27  3  1  0  0  0  0
  3  4  2  0  0  0  0
 23 10  1  0  0  0  0
 10  4  1  0  0  0  0
  4 28  1  0  0  0  0
 28  5  1  0  0  0  0
  5 25  1  0  0  0  0
 25 21  1  0  0  0  0
 23 25  1  0  0  0  0
  7 23  1  0  0  0  0
  6  7  1  0  0  0  0
  6 12  1  0  0  0  0
 33 12  1  0  0  0  0
 12 21  1  0  0  0  0
 21  8  1  0  0  0  0
 33  9  1  0  0  0  0
  8  9  1  0  0  0  0
 10 11  1  1  0  0  0
 12 13  1  1  0  0  0
 33 14  1  0  0  0  0
 15 14  2  0  0  0  0
 14 16  1  0  0  0  0
 19 18  1  0  0  0  0
 19 17  1  0  0  0  0
 18 15  1  0  0  0  0
 16 17  2  0  0  0  0
 19 20  2  0  0  0  0
 21 22  1  1  0  0  0
 23 24  1  6  0  0  0
 25 26  1  1  0  0  0
 27 35  1  1  0  0  0
 28 29  1  1  0  0  0
 29 31  1  0  0  0  0
 31 30  1  0  0  0  0
 31 32  2  0  0  0  0
 33 34  1  6  0  0  0
 36 35  1  1  0  0  0
 40 36  1  0  0  0  0
 37 36  1  0  0  0  0
 37 44  1  0  0  0  0
 44 42  1  0  0  0  0
 42 38  1  0  0  0  0
 38 40  1  0  0  0  0
 38 39  1  1  0  0  0
 40 41  1  6  0  0  0
 42 43  1  6  0  0  0
 44 45  1  1  0  0  0
 45 46  1  0  0  0  0
M  END
> <ID>
CHEBI:28332

> <NAME>
scilliroside

> <STAR>
3

> <SECONDARY_ID>
CHEBI:9052; CHEBI:26609

> <SYNONYM>
Scillirosidin 3-O-beta-D-glucoside; Scilliroside

> <IUPAC_NAME>
6beta-acetoxy-3beta-(beta-D-glucopyranosyloxy)-8alpha,14-dihydroxybufa-4,20,22-trienolide

> <FORMULA>
C32H44O12

> <MASS>
618.71174

> <MONOISOTOPIC_MASS>
618.30401

> <CHARGE>
0

> <SMILES>
[H][C@@]1(CC[C@@]2(O)[C@]1(C)CC[C@]1([H])[C@@]3(C)CC[C@H](O[C@@H]4O[C@H](CO)[C@@H](O)[C@H](O)[C@H]4O)C=C3[C@@H](C[C@@]21C)OC(C)=O)c1ccc(=O)oc1

> <INCHI>
InChI=1S/C33H46O11/c1-17(35)42-22-14-32(4)24(9-11-31(3)20(8-12-33(31,32)40)18-5-6-25(36)41-16-18)30(2)10-7-19(13-21(22)30)43-29-28(39)27(38)26(37)23(15-34)44-29/h5-6,13,16,19-20,22-24,26-29,34,37-40H,7-12,14-15H2,1-4H3/t19-,20+,22+,23+,24+,26+,27-,28+,29+,30-,31+,32+,33+/m0/s1

> <INCHIKEY>
ZAXLKOUOBYJMHS-QNBHOGDNSA-N

> <CAS_REGISTRY_NUMBER>
507-60-8

> <CHEMIDPLUS>
507-60-8

> <KEGG_COMPOUND_ACCESSION>
C08880

> <KNAPSACK_ACCESSION>
C00003637

$$$$

Marvin  02220713502D          

 12 12  0  0  1  0            999 V2000
    0.0000    0.8250    0.0000 O   0  0  0  0  0  0  0  0  0  0  0  0
    0.7145    0.4125    0.0000 C   0  0  1  0  0  0  0  0  0  0  0  0
    1.4289    0.8250    0.0000 O   0  0  0  0  0  0  0  0  0  0  0  0
    0.7145   -0.4125    0.0000 C   0  0  1  0  0  0  0  0  0  0  0  0
    1.4289   -0.8250    0.0000 O   0  0  0  0  0  0  0  0  0  0  0  0
    0.0000   -0.8250    0.0000 C   0  0  1  0  0  0  0  0  0  0  0  0
    0.0000   -1.6500    0.0000 O   0  0  0  0  0  0  0  0  0  0  0  0
   -0.7145   -0.4125    0.0000 C   0  0  2  0  0  0  0  0  0  0  0  0
   -1.4289   -0.8250    0.0000 O   0  0  0  0  0  0  0  0  0  0  0  0
   -0.7145    0.4125    0.0000 C   0  0  1  0  0  0  0  0  0  0  0  0
   -2.1434    0.4125    0.0000 O   0  0  0  0  0  0  0  0  0  0  0  0
   -1.4289    0.8250    0.0000 C   0  0  0  0  0  0  0  0  0  0  0  0
  6  4  1  0  0  0  0
  6  8  1  0  0  0  0
  4  2  1  0  0  0  0
  8 10  1  0  0  0  0
  2  1  1  0  0  0  0
 10  1  1  0  0  0  0
  2  3  1  1  0  0  0
  4  5  1  1  0  0  0
  6  7  1  1  0  0  0
  8  9  1  6  0  0  0
 10 12  1  1  0  0  0
 12 11  1  0  0  0  0
M  END
> <ID>
CHEBI:28563

> <NAME>
beta-D-mannose

> <DEFINITION>
A D-mannopyranose in which the anomeric centre has β-configuration.

> <STAR>
3

> <SECONDARY_ID>
CHEBI:10406; CHEBI:41167; CHEBI:22807

> <SYNONYM>
beta-D-mannose; beta-D-Mannose; BETA-D-MANNOSE

> <IUPAC_NAME>
beta-D-mannopyranose

> <FORMULA>
C6H12O6

> <MASS>
180.15588

> <MONOISOTOPIC_MASS>
180.06339

> <CHARGE>
0

> <SMILES>
OC[C@H]1O[C@@H](O)[C@@H](O)[C@@H](O)[C@@H]1O

> <INCHI>
InChI=1S/C6H12O6/c7-1-2-3(8)4(9)5(10)6(11)12-2/h2-11H,1H2/t2-,3-,4+,5+,6-/m1/s1

> <INCHIKEY>
WQZGKKKJIJFFOK-RWOPYEJCSA-N

> <BEILSTEIN_REGISTRY_NUMBER>
1680742

> <CAS_REGISTRY_NUMBER>
7322-31-8

> <GMELIN_REGISTRY_NUMBER>
648640

> <REAXYS_REGISTRY_NUMBER>
1680742

> <CHEMIDPLUS>
7322-31-8

> <DRUGBANK_ACCESSION>
DB02687

> <KEGG_COMPOUND_ACCESSION>
C02209

> <METACYC_ACCESSION>
CPD-12601

> <PDBECHEM_ACCESSION>
BMA

> <PUBMED_CITATION>
17157281; 25568069; 31537530

$$$$

Marvin  07100612492D          

 12 12  0  0  1  0            999 V2000
    0.0000    0.8250    0.0000 O   0  0  0  0  0  0  0  0  0  0  0  0
    0.7145    0.4125    0.0000 C   0  0  2  0  0  0  0  0  0  0  0  0
    1.4289    0.8250    0.0000 O   0  0  0  0  0  0  0  0  0  0  0  0
    0.7145   -0.4125    0.0000 C   0  0  1  0  0  0  0  0  0  0  0  0
    1.4289   -0.8250    0.0000 O   0  0  0  0  0  0  0  0  0  0  0  0
   -0.0000   -0.8250    0.0000 C   0  0  1  0  0  0  0  0  0  0  0  0
   -0.0000   -1.6500    0.0000 O   0  0  0  0  0  0  0  0  0  0  0  0
   -0.7145   -0.4125    0.0000 C   0  0  2  0  0  0  0  0  0  0  0  0
   -1.4289   -0.8250    0.0000 O   0  0  0  0  0  0  0  0  0  0  0  0
   -0.7145    0.4125    0.0000 C   0  0  1  0  0  0  0  0  0  0  0  0
   -2.1434    0.4125    0.0000 O   0  0  0  0  0  0  0  0  0  0  0  0
   -1.4289    0.8250    0.0000 C   0  0  0  0  0  0  0  0  0  0  0  0
  6  4  1  0  0  0  0
  6  8  1  0  0  0  0
  4  2  1  0  0  0  0
  8 10  1  0  0  0  0
  2  1  1  0  0  0  0
 10  1  1  0  0  0  0
  2  3  1  6  0  0  0
  4  5  1  1  0  0  0
  6  7  1  1  0  0  0
  8  9  1  6  0  0  0
 10 12  1  1  0  0  0
 12 11  1  0  0  0  0
M  END
> <ID>
CHEBI:28729

> <NAME>
alpha-D-mannose

> <DEFINITION>
D-Mannopyranose having α-configuration at the anomeric centre.

> <STAR>
3

> <SECONDARY_ID>
CHEBI:43805; CHEBI:10260; CHEBI:22403

> <SYNONYM>
ALPHA-D-MANNOSE; alpha-D-Mannose; alpha-D-mannopyranose; alpha-D-Man

> <IUPAC_NAME>
alpha-D-mannopyranose

> <FORMULA>
C6H12O6

> <MASS>
180.15588

> <MONOISOTOPIC_MASS>
180.06339

> <CHARGE>
0

> <SMILES>
OC[C@H]1O[C@H](O)[C@@H](O)[C@@H](O)[C@@H]1O

> <INCHI>
InChI=1S/C6H12O6/c7-1-2-3(8)4(9)5(10)6(11)12-2/h2-11H,1H2/t2-,3-,4+,5+,6+/m1/s1

> <INCHIKEY>
WQZGKKKJIJFFOK-PQMKYFCFSA-N

> <BEILSTEIN_REGISTRY_NUMBER>
1281606

> <CAS_REGISTRY_NUMBER>
3458-28-4

> <GMELIN_REGISTRY_NUMBER>
185283

> <REAXYS_REGISTRY_NUMBER>
1281606

> <CHEMIDPLUS>
7296-15-3

> <DRUGBANK_ACCESSION>
DB02944

> <KEGG_COMPOUND_ACCESSION>
C00936

> <KNAPSACK_ACCESSION>
C00001126

> <PDBECHEM_ACCESSION>
MAN

> <PUBMED_CITATION>
19443021; 25568069; 31537530

$$$$

Marvin  11220522472D          

 24 27  0  0  1  0            999 V2000
    1.8036   -0.1138    0.0000 C   0  0  0  0  0  0  0  0  0  0  0  0
    0.3045   -1.0964    0.0000 C   0  0  0  0  0  0  0  0  0  0  0  0
    1.8036    1.2211    0.0000 C   0  0  2  0  0  0  0  0  0  0  0  0
    0.3045    1.3786    0.0000 C   0  0  0  0  0  0  0  0  0  0  0  0
    2.2885    0.5536    0.0000 C   0  0  0  0  0  0  0  0  0  0  0  0
   -1.1245   -0.2714    0.0000 C   0  0  0  0  0  0  0  0  0  0  0  0
   -0.4100    0.9661    0.0000 C   0  0  0  0  0  0  0  0  0  0  0  0
   -0.4100   -1.5089    0.0000 C   0  0  0  0  0  0  0  0  0  0  0  0
    2.0585    2.0057    0.0000 O   0  0  0  0  0  0  0  0  0  0  0  0
   -1.1245   -1.0964    0.0000 C   0  0  0  0  0  0  0  0  0  0  0  0
   -1.8390    0.1411    0.0000 C   0  0  0  0  0  0  0  0  0  0  0  0
   -1.8390   -1.5089    0.0000 C   0  0  0  0  0  0  0  0  0  0  0  0
   -2.5534   -1.0964    0.0000 C   0  0  0  0  0  0  0  0  0  0  0  0
   -3.2679   -1.5089    0.0000 O   0  0  0  0  0  0  0  0  0  0  0  0
    0.3045   -0.2714    0.0000 C   0  0  2  0  0  0  0  0  0  0  0  0
    0.3045    0.5536    0.0000 H   0  0  0  0  0  0  0  0  0  0  0  0
   -0.4100    0.1411    0.0000 C   0  0  1  0  0  0  0  0  0  0  0  0
   -0.4100   -0.6839    0.0000 H   0  0  0  0  0  0  0  0  0  0  0  0
    1.0189    0.9661    0.0000 C   0  0  2  0  0  0  0  0  0  0  0  0
    1.0189    1.7911    0.0000 C   0  0  0  0  0  0  0  0  0  0  0  0
    1.0189    0.1411    0.0000 C   0  0  1  0  0  0  0  0  0  0  0  0
    1.0189   -0.6839    0.0000 H   0  0  0  0  0  0  0  0  0  0  0  0
   -2.5534   -0.2714    0.0000 C   0  0  0  0  0  0  0  0  0  0  0  0
   -3.2679    0.1411    0.0000 O   0  0  0  0  0  0  0  0  0  0  0  0
 21 15  1  0  0  0  0
 21 19  1  0  0  0  0
 21  1  1  0  0  0  0
 15 17  1  0  0  0  0
 15  2  1  0  0  0  0
 19  3  1  0  0  0  0
 19  4  1  0  0  0  0
  5  1  1  0  0  0  0
 17  6  1  0  0  0  0
 17  7  1  0  0  0  0
  2  8  1  0  0  0  0
  3  9  1  1  0  0  0
  6 10  2  0  0  0  0
  6 11  1  0  0  0  0
 10 12  1  0  0  0  0
 11 23  2  0  0  0  0
 12 13  2  0  0  0  0
 13 14  1  0  0  0  0
  3  5  1  0  0  0  0
  4  7  1  0  0  0  0
  8 10  1  0  0  0  0
 23 13  1  0  0  0  0
 15 16  1  1  0  0  0
 17 18  1  6  0  0  0
 19 20  1  1  0  0  0
 21 22  1  6  0  0  0
 23 24  1  0  0  0  0
M  END
> <ID>
CHEBI:28744

> <NAME>
2-hydroxy-17beta-estradiol

> <DEFINITION>
A 2-hydroxy steroid that consists of 17β-estradiol having an additional hydroxy group at position 2.

> <STAR>
3

> <SECONDARY_ID>
CHEBI:42267; CHEBI:1155; CHEBI:19637

> <SYNONYM>
2-OH-estradiol; 2-OH-Estradiol; 2-OH-E2; 2-Hydroxyestradiol-17beta; 2-Hydroxyestradiol-17beta; 2-hydroxy-17-beta-estradiol; (17beta)-estra-1,3,5(10)-triene-2,3,17-triol

> <IUPAC_NAME>
estra-1,3,5(10)-triene-2,3,17beta-triol

> <FORMULA>
C18H24O3

> <MASS>
288.38136

> <MONOISOTOPIC_MASS>
288.17254

> <CHARGE>
0

> <SMILES>
[H][C@]12CC[C@]3(C)[C@@H](O)CC[C@@]3([H])[C@]1([H])CCc1cc(O)c(O)cc21

> <INCHI>
InChI=1S/C18H24O3/c1-18-7-6-11-12(14(18)4-5-17(18)21)3-2-10-8-15(19)16(20)9-13(10)11/h8-9,11-12,14,17,19-21H,2-7H2,1H3/t11-,12+,14-,17-,18-/m0/s1

> <INCHIKEY>
DILDHNKDVHLEQB-XSSYPUMDSA-N

> <BEILSTEIN_REGISTRY_NUMBER>
2219367

> <CAS_REGISTRY_NUMBER>
362-05-0

> <REAXYS_REGISTRY_NUMBER>
2219367

> <CHEMIDPLUS>
362-05-0

> <DRUGBANK_ACCESSION>
DB07706

> <KEGG_COMPOUND_ACCESSION>
C05301

> <LIPID_MAPS_INSTANCE_ACCESSION>
LMST02010027

> <PUBMED_CITATION>
11812141; 14563383; 14872091; 15662657; 16404153; 16421288; 16788039

$$$$

Ketcher 11291621582D 1   1.00000     0.00000     0

 21 21  0     1  0            999 V2000
    4.7019  -23.9789    0.0000 C   0  0  0  0  0  0  0  0  0  0  0  0
    3.8360  -24.4789    0.0000 C   0  0  0  0  0  0  0  0  0  0  0  0
    3.8361  -25.4790    0.0000 C   0  0  0  0  0  0  0  0  0  0  0  0
    4.7021  -25.9790    0.0000 C   0  0  0  0  0  0  0  0  0  0  0  0
    5.5683  -25.4790    0.0000 N   0  0  0  0  0  0  0  0  0  0  0  0
    6.4341  -25.9790    0.0000 C   0  0  0  0  0  0  0  0  0  0  0  0
    6.4340  -26.9791    0.0000 C   0  0  0  0  0  0  0  0  0  0  0  0
    7.3001  -27.4792    0.0000 C   0  0  0  0  0  0  0  0  0  0  0  0
    9.0321  -27.4793    0.0000 C   0  0  0  0  0  0  0  0  0  0  0  0
    8.1661  -26.9793    0.0000 C   0  0  0  0  0  0  0  0  0  0  0  0
    7.2999  -28.4792    0.0000 C   0  0  0  0  0  0  0  0  0  0  0  0
    8.1659  -28.9792    0.0000 C   0  0  0  0  0  0  0  0  0  0  0  0
    9.0320  -28.4793    0.0000 C   0  0  0  0  0  0  0  0  0  0  0  0
    4.7019  -22.9790    0.0000 O   0  0  0  0  0  0  0  0  0  0  0  0
    5.5681  -24.4790    0.0000 O   0  0  0  0  0  0  0  0  0  0  0  0
    2.9701  -25.9790    0.0000 N   0  0  0  0  0  0  0  0  0  0  0  0
    4.7021  -26.9791    0.0000 O   0  0  0  0  0  0  0  0  0  0  0  0
    7.3002  -25.4790    0.0000 C   0  0  0  0  0  0  0  0  0  0  0  0
    7.3003  -24.4791    0.0000 O   0  0  0  0  0  0  0  0  0  0  0  0
    8.1662  -25.9791    0.0000 O   0  0  0  0  0  0  0  0  0  0  0  0
    9.0322  -25.4793    0.0000 C   0  0  0  0  0  0  0  0  0  0  0  0
  1  2  1  0     0  0
  3  2  1  1     0  0
  3  4  1  0     0  0
  4  5  1  0     0  0
  5  6  1  0     0  0
  6  7  1  6     0  0
  7  8  1  0     0  0
 10  8  2  0     0  0
  8 11  1  0     0  0
  9 10  1  0     0  0
  9 13  2  0     0  0
 11 12  2  0     0  0
 12 13  1  0     0  0
  1 14  2  0     0  0
  1 15  1  0     0  0
  3 16  1  0     0  0
  4 17  2  0     0  0
  6 18  1  0     0  0
 18 19  2  0     0  0
 18 20  1  0     0  0
 20 21  1  0     0  0
M  END
> <ID>
CHEBI:2877

> <NAME>
aspartame

> <DEFINITION>
A dipeptide obtained by formal condensation of the α-carboxy group of L-aspartic acid with the amino group of methyl L-phenylalaninate. Commonly used as an artificial sweetener.

> <STAR>
3

> <SECONDARY_ID>
CHEBI:45047

> <SYNONYM>
NutraSweet; L-Aspartyl-L-phenylalanine methyl ester; E 951; Aspartylphenylalanine methyl ester; Aspartame; Asp-phe-ome; 3-Amino-N-(alpha-methoxycarbonylphenethyl) succinamic acid; 3-Amino-N-(alpha-carboxyphenethyl)succinamic acid N-methyl ester; 1-methyl N-L-alpha-aspartyl-L-phenylalanate

> <IUPAC_NAME>
methyl L-alpha-aspartyl-L-phenylalaninate

> <INN>
aspartamum; aspartamo; aspartam

> <BRAND_NAME>
Sanecta; AminoSweet

> <FORMULA>
C14H18N2O5

> <MASS>
294.304

> <MONOISOTOPIC_MASS>
294.12157

> <CHARGE>
0

> <SMILES>
C(C[C@@H](C(N[C@@H](CC1=CC=CC=C1)C(=O)OC)=O)N)(=O)O

> <INCHI>
InChI=1S/C14H18N2O5/c1-21-14(20)11(7-9-5-3-2-4-6-9)16-13(19)10(15)8-12(17)18/h2-6,10-11H,7-8,15H2,1H3,(H,16,19)(H,17,18)/t10-,11-/m0/s1

> <INCHIKEY>
IAOZJIPTCAWIRG-QWRGUYRKSA-N

> <BEILSTEIN_REGISTRY_NUMBER>
2223850

> <CAS_REGISTRY_NUMBER>
22839-47-0

> <REAXYS_REGISTRY_NUMBER>
2223850

> <CHEMIDPLUS>
22839-47-0

> <DRUGBANK_ACCESSION>
DB00168

> <HMDB_ACCESSION>
HMDB0001894

> <KEGG_COMPOUND_ACCESSION>
C11045

> <KEGG_DRUG_ACCESSION>
D02381

> <METACYC_ACCESSION>
CPD-5583

> <PDBECHEM_ACCESSION>
PME

> <WIKIPEDIA_ACCESSION>
Aspartame

> <PUBMED_CITATION>
1771173; 2013754; 21150094; 21372000; 22354473; 24355796; 24925367; 24944748; 24965331; 25431414; 25543075; 25786106; 25951455; 25991916; 26015492; 26099025; 26159964; 26247507; 26308194; 26321723; 26377607; 26582819; 26593524; 26912665; 27015640; 27038223; 27088715; 27127997; 27216413; 27298583; 27492574; 27565676; 27614095; 27640132; 27699780; 27728881; 27840415; 27845306

$$$$

Ketcher 06141616502D 1   1.00000     0.00000     0

 22 24  0     1  0            999 V2000
   19.7154   -4.9117    0.0000 C   0  0  0  0  0  0  0  0  0  0  0  0
   18.8493   -5.4116    0.0000 N   0  0  0  0  0  0  0  0  0  0  0  0
   19.7153   -6.9116    0.0000 N   0  0  0  0  0  0  0  0  0  0  0  0
   20.5813   -6.4116    0.0000 C   0  0  0  0  0  0  0  0  0  0  0  0
   20.5813   -5.4116    0.0000 C   0  0  0  0  0  0  0  0  0  0  0  0
   21.5324   -5.1027    0.0000 N   0  0  0  0  0  0  0  0  0  0  0  0
   22.1202   -5.9118    0.0000 C   0  0  0  0  0  0  0  0  0  0  0  0
   21.5324   -6.7207    0.0000 N   0  0  0  0  0  0  0  0  0  0  0  0
   21.8414   -7.6720    0.0000 C   0  0  0  0  0  0  0  0  0  0  0  0
   21.2536   -8.4808    0.0000 O   0  0  0  0  0  0  0  0  0  0  0  0
   21.8413   -9.2900    0.0000 C   0  0  0  0  0  0  0  0  0  0  0  0
   22.7924   -8.9809    0.0000 C   0  0  0  0  0  0  0  0  0  0  0  0
   23.6014   -9.5688    0.0000 O   0  0  0  0  0  0  0  0  0  0  0  0
   22.7924   -7.9809    0.0000 C   0  0  0  0  0  0  0  0  0  0  0  0
   20.5322  -10.2410    0.0000 O   0  0  0  0  0  0  0  0  0  0  0  0
   19.6662  -11.7410    0.0000 O   0  0  0  0  0  0  0  0  0  0  0  0
   19.6662  -10.7410    0.0000 P   0  0  0  0  0  0  0  0  0  0  0  0
   19.6662   -9.7411    0.0000 O   0  0  0  0  0  0  0  0  0  0  0  0
   18.8002  -10.2410    0.0000 O   0  0  0  0  0  0  0  0  0  0  0  0
   21.5322  -10.2410    0.0000 C   0  0  0  0  0  0  0  0  0  0  0  0
   18.8493   -6.4116    0.0000 C   0  0  0  0  0  0  0  0  0  0  0  0
   19.7154   -3.9117    0.0000 O   0  0  0  0  0  0  0  0  0  0  0  0
 22  1  2  0     0  0
  1  2  1  0     0  0
  1  5  1  0     0  0
  2 21  1  0     0  0
 21  3  2  0     0  0
  3  4  1  0     0  0
  4  5  2  0     0  0
  4  8  1  0     0  0
  5  6  1  0     0  0
  6  7  2  0     0  0
  7  8  1  0     0  0
  9  8  1  1     0  0
  9 10  1  0     0  0
  9 14  1  0     0  0
 10 11  1  0     0  0
 11 20  1  1     0  0
 11 12  1  0     0  0
 12 13  1  6     0  0
 12 14  1  0     0  0
 15 17  1  0     0  0
 17 16  2  0     0  0
 17 19  1  0     0  0
 17 18  1  0     0  0
 20 15  1  0     0  0
M  END
> <ID>
CHEBI:28806

> <NAME>
2'-deoxyinosine-5'-monophosphate

> <DEFINITION>
A deoxyinosine phosphate that is 5'-inosinic acid in which the hydroxy group at position 2' by a hydrogen atom.

> <STAR>
3

> <SECONDARY_ID>
CHEBI:43377; CHEBI:43389; CHEBI:44500; CHEBI:43384; CHEBI:43315; CHEBI:41998; CHEBI:19250; CHEBI:837

> <SYNONYM>
dIMP; Deoxyinosine monophosphate; 9-(2-Deoxy-5-O-phosphono-beta-delta-erythro-pentofuranosyl)-9H-purin-6-ol; 9-(2-deoxy-5-O-phosphono-beta-D-erythro-pentofuranosyl)-9H-purin-6-ol; 2'-Deoxyinosine 5'-phosphate; 2'-Deoxyinosine 5'-phosphate; 2'-Deoxyinosine 5'-monophosphoric acid; 2'-Deoxyinosine 5'-monophosphate; 2'-deoxy-5'-inosinic acid

> <IUPAC_NAME>
[(2R,3S,4R,5R)-3-hydroxy-5-(6-hydroxy-9H-purin-9-yl)tetrahydrofuran-2-yl]methyl dihydrogen phosphate; 2'-deoxy-5'-inosinic acid

> <FORMULA>
C10H13N4O7P; C10H13N4O7P

> <MASS>
332.207

> <MONOISOTOPIC_MASS>
332.05219

> <CHARGE>
0

> <SMILES>
C1(=O)NC=NC2=C1N=CN2[C@@H]3O[C@H](COP(=O)(O)O)[C@@H](O)C3

> <INCHI>
InChI=1S/C10H13N4O7P/c15-5-1-7(21-6(5)2-20-22(17,18)19)14-4-13-8-9(14)11-3-12-10(8)16/h3-7,15H,1-2H2,(H,11,12,16)(H2,17,18,19)/t5-,6+,7+/m0/s1

> <INCHIKEY>
PHNGFPPXDJJADG-RRKCRQDMSA-N

> <CAS_REGISTRY_NUMBER>
3393-18-8

> <REAXYS_REGISTRY_NUMBER>
583139

> <CHEMIDPLUS>
3393-18-8

> <HMDB_ACCESSION>
HMDB0006555

> <KEGG_COMPOUND_ACCESSION>
C06196

> <METACYC_ACCESSION>
DIMP

> <PDBECHEM_ACCESSION>
DI

> <WIKIPEDIA_ACCESSION>
Deoxyinosine_monophosphate

> <PUBMED_CITATION>
10684927; 20542141; 22817898; 23385455; 98523

$$$$

Marvin  12050714032D          

 13 13  0  0  0  0            999 V2000
    0.0000    0.8250    0.0000 O   0  0  0  0  0  0  0  0  0  0  0  0
   -0.7145    0.4125    0.0000 C   0  0  1  0  0  0  0  0  0  0  0  0
    0.7145    0.4125    0.0000 C   0  0  2  0  0  0  0  0  0  0  0  0
    0.0000   -0.8250    0.0000 C   0  0  2  0  0  0  0  0  0  0  0  0
    0.7145   -0.4125    0.0000 C   0  0  1  0  0  0  0  0  0  0  0  0
   -0.7145   -0.4125    0.0000 C   0  0  2  0  0  0  0  0  0  0  0  0
    1.4289    0.8250    0.0000 O   0  0  0  0  0  0  0  0  0  0  0  0
    0.0000   -1.6500    0.0000 O   0  0  0  0  0  0  0  0  0  0  0  0
    1.4289   -0.8250    0.0000 O   0  0  0  0  0  0  0  0  0  0  0  0
   -1.4289   -0.8250    0.0000 O   0  0  0  0  0  0  0  0  0  0  0  0
   -2.1434    0.4125    0.0000 O   0  0  0  0  0  0  0  0  0  0  0  0
   -1.4289    0.8250    0.0000 C   0  0  0  0  0  0  0  0  0  0  0  0
   -1.4289    1.6500    0.0000 O   0  0  0  0  0  0  0  0  0  0  0  0
  1  2  1  0  0  0  0
  2 12  1  1  0  0  0
  1  3  1  0  0  0  0
  3  7  1  1  0  0  0
  4  8  1  1  0  0  0
  5  3  1  0  0  0  0
  4  5  1  0  0  0  0
  5  9  1  6  0  0  0
  6  4  1  0  0  0  0
  2  6  1  0  0  0  0
  6 10  1  6  0  0  0
 12 11  1  0  0  0  0
 12 13  2  0  0  0  0
M  END
> <ID>
CHEBI:28860

> <NAME>
beta-D-glucuronic acid

> <DEFINITION>
A D-glucopyranuronic acid in which the anomeric centre has β-configuration.

> <STAR>
3

> <SECONDARY_ID>
CHEBI:40973; CHEBI:10395; CHEBI:21016

> <SYNONYM>
GlcAbeta; GlcAb; beta-D-Glucuronic acid; beta-D-Glucopyranuronic acid

> <IUPAC_NAME>
beta-D-glucopyranuronic acid; (2S,3S,4S,5R,6R)-3,4,5,6-tetrahydroxytetrahydro-2H-pyran-2-carboxylic acid

> <FORMULA>
C6H10O7

> <MASS>
194.13940

> <MONOISOTOPIC_MASS>
194.04265

> <CHARGE>
0

> <SMILES>
O[C@@H]1O[C@@H]([C@@H](O)[C@H](O)[C@H]1O)C(O)=O

> <INCHI>
InChI=1S/C6H10O7/c7-1-2(8)4(5(10)11)13-6(12)3(1)9/h1-4,6-9,12H,(H,10,11)/t1-,2-,3+,4-,6+/m0/s1

> <INCHIKEY>
AEMOLEFTQBMNLQ-QIUUJYRFSA-N

> <BEILSTEIN_REGISTRY_NUMBER>
1427744

> <GMELIN_REGISTRY_NUMBER>
2497864

> <REAXYS_REGISTRY_NUMBER>
1427744

> <KEGG_COMPOUND_ACCESSION>
C08350

> <KNAPSACK_ACCESSION>
C00001123

> <METACYC_ACCESSION>
CPD-12521

> <PDBECHEM_ACCESSION>
BDP

> <WIKIPEDIA_ACCESSION>
Glucuronic_acid

> <PUBMED_CITATION>
19443021; 22770225; 25568069; 31537530

$$$$

Mrv0541 02171517152D          

 16 15  0  0  0  0            999 V2000
    6.3903   -4.9651    0.0000 C   0  0  0  0  0  0  0  0  0  0  0  0
    6.3903   -5.7901    0.0000 C   0  0  0  0  0  0  0  0  0  0  0  0
    5.6758   -4.5526    0.0000 C   0  0  0  0  0  0  0  0  0  0  0  0
    5.6758   -6.2026    0.0000 C   0  0  0  0  0  0  0  0  0  0  0  0
    4.9613   -4.9651    0.0000 C   0  0  0  0  0  0  0  0  0  0  0  0
    4.9613   -5.7901    0.0000 C   0  0  0  0  0  0  0  0  0  0  0  0
    7.1048   -4.5526    0.0000 C   0  0  0  0  0  0  0  0  0  0  0  0
    7.8192   -4.9652    0.0000 C   0  0  0  0  0  0  0  0  0  0  0  0
    7.1047   -6.2026    0.0000 C   0  0  0  0  0  0  0  0  0  0  0  0
    7.8192   -5.7902    0.0000 C   0  0  0  0  0  0  0  0  0  0  0  0
    8.5337   -4.5528    0.0000 C   0  0  0  0  0  0  0  0  0  0  0  0
    9.2481   -4.9654    0.0000 C   0  0  0  0  0  0  0  0  0  0  0  0
    8.5335   -6.2027    0.0000 C   0  0  0  0  0  0  0  0  0  0  0  0
    9.9626   -4.5529    0.0000 C   0  0  0  0  0  0  0  0  0  0  0  0
   10.6771   -4.9656    0.0000 O   0  0  0  0  0  0  0  0  0  0  0  0
    9.9627   -3.7279    0.0000 O   0  0  0  0  0  0  0  0  0  0  0  0
  3  1  1  0  0  0  0
  4  2  1  0  0  0  0
  5  3  1  0  0  0  0
  6  4  1  0  0  0  0
  6  5  1  0  0  0  0
  7  1  1  0  0  0  0
  8  7  1  0  0  0  0
  9  2  1  0  0  0  0
 10  9  1  0  0  0  0
 11  8  1  0  0  0  0
 12 11  1  0  0  0  0
 13 10  1  0  0  0  0
 12 14  1  0  0  0  0
 14 15  1  0  0  0  0
 14 16  2  0  0  0  0
M  END
> <ID>
CHEBI:28875

> <NAME>
tetradecanoic acid

> <DEFINITION>
A straight-chain, fourteen-carbon, long-chain saturated fatty acid mostly found in milk fat.

> <STAR>
3

> <SECONDARY_ID>
CHEBI:278516; CHEBI:44232; CHEBI:73168; CHEBI:26897; CHEBI:7056

> <SYNONYM>
tetradecoic acid; Tetradecanoic acid; n-Tetradecoic acid; n-tetradecanoic acid; n-Tetradecan-1-oic acid; Myristinsaeure; Myristic acid; MYRISTIC ACID; Myristic acid; CH3-[CH2]12-COOH; C14; acide tetradecanoique; 14:00; 14:0; 14; 1-tetradecanecarboxylic acid

> <IUPAC_NAME>
myristic acid

> <FORMULA>
C14H28O2

> <MASS>
228.37090

> <MONOISOTOPIC_MASS>
228.20893

> <CHARGE>
0

> <SMILES>
CCCCCCCCCCCCCC(O)=O

> <INCHI>
InChI=1S/C14H28O2/c1-2-3-4-5-6-7-8-9-10-11-12-13-14(15)16/h2-13H2,1H3,(H,15,16)

> <INCHIKEY>
TUNFSRHWOTWDNC-UHFFFAOYSA-N

> <BEILSTEIN_REGISTRY_NUMBER>
508624

> <CAS_REGISTRY_NUMBER>
544-63-8

> <GMELIN_REGISTRY_NUMBER>
242115

> <REAXYS_REGISTRY_NUMBER>
508624

> <CHEMIDPLUS>
544-63-8

> <DRUGBANK_ACCESSION>
DB08231

> <HMDB_ACCESSION>
HMDB0000806

> <KEGG_COMPOUND_ACCESSION>
C06424

> <KNAPSACK_ACCESSION>
C00001228

> <LIPID_MAPS_INSTANCE_ACCESSION>
LMFA01010014

> <METACYC_ACCESSION>
CPD-7836

> <NIST_CHEMISTRY_WEBBOOK>
544-63-8

> <PDBECHEM_ACCESSION>
MYR

> <WIKIPEDIA_ACCESSION>
Myristic_acid

> <PUBMED_CITATION>
13129458; 19154695; 19761868; 19786012; 19902021; 19955401; 20634506; 20920594; 21955528; 22030224; 27206979; 28600633; 15149689; 16509590; 16554156; 6802973

$$$$

Ketcher 04101715572D 1   1.00000     0.00000     0

 35 39  0     1  0            999 V2000
   14.8001   -4.2983    0.0000 C   0  0  0  0  0  0  0  0  0  0  0  0
   12.9830   -5.4893    0.0000 C   0  0  0  0  0  0  0  0  0  0  0  0
   14.8001   -2.6802    0.0000 C   0  0  0  0  0  0  0  0  0  0  0  0
   12.9830   -2.4893    0.0000 C   0  0  0  0  0  0  0  0  0  0  0  0
   15.3879   -3.4893    0.0000 C   0  0  0  0  0  0  0  0  0  0  0  0
   11.2509   -4.4893    0.0000 C   0  0  0  0  0  0  0  0  0  0  0  0
   12.1170   -2.9893    0.0000 C   0  0  0  0  0  0  0  0  0  0  0  0
   12.1170   -5.9893    0.0000 C   0  0  0  0  0  0  0  0  0  0  0  0
   15.1091   -1.7292    0.0000 O   0  0  0  0  0  0  0  0  0  0  0  0
   11.2509   -5.4893    0.0000 C   0  0  0  0  0  0  0  0  0  0  0  0
   10.3848   -3.9893    0.0000 C   0  0  0  0  0  0  0  0  0  0  0  0
   10.3848   -5.9893    0.0000 C   0  0  0  0  0  0  0  0  0  0  0  0
    9.5189   -4.4893    0.0000 C   0  0  0  0  0  0  0  0  0  0  0  0
    9.5189   -5.4893    0.0000 C   0  0  0  0  0  0  0  0  0  0  0  0
   12.9830   -4.4893    0.0000 C   0  0  0  0  0  0  0  0  0  0  0  0
   12.9830   -3.4893    0.0000 H   0  0  0  0  0  0  0  0  0  0  0  0
   12.1170   -3.9893    0.0000 C   0  0  0  0  0  0  0  0  0  0  0  0
   12.1170   -4.9893    0.0000 H   0  0  0  0  0  0  0  0  0  0  0  0
   13.8490   -2.9893    0.0000 C   0  0  0  0  0  0  0  0  0  0  0  0
   13.8490   -1.9893    0.0000 C   0  0  0  0  0  0  0  0  0  0  0  0
   13.8490   -3.9893    0.0000 C   0  0  0  0  0  0  0  0  0  0  0  0
   13.8490   -4.9893    0.0000 H   0  0  0  0  0  0  0  0  0  0  0  0
    8.6528   -5.9893    0.0000 O   0  0  0  0  0  0  0  0  0  0  0  0
    6.9208   -3.9893    0.0000 C   0  0  0  0  0  0  0  0  0  0  0  0
    6.0548   -4.4893    0.0000 C   0  0  0  0  0  0  0  0  0  0  0  0
    6.0548   -5.4893    0.0000 C   0  0  0  0  0  0  0  0  0  0  0  0
    6.9208   -5.9893    0.0000 C   0  0  0  0  0  0  0  0  0  0  0  0
    7.7868   -5.4893    0.0000 C   0  0  0  0  0  0  0  0  0  0  0  0
    7.7868   -4.4893    0.0000 O   0  0  0  0  0  0  0  0  0  0  0  0
    5.1887   -5.9893    0.0000 O   0  0  0  0  0  0  0  0  0  0  0  0
    6.9208   -2.9893    0.0000 C   0  0  0  0  0  0  0  0  0  0  0  0
    6.9208   -6.9893    0.0000 O   0  0  0  0  0  0  0  0  0  0  0  0
    5.1887   -3.9893    0.0000 O   0  0  0  0  0  0  0  0  0  0  0  0
    7.7868   -2.4893    0.0000 O   0  0  0  0  0  0  0  0  0  0  0  0
    6.0548   -2.4893    0.0000 O   0  0  0  0  0  0  0  0  0  0  0  0
 21 15  1  0     0  0
 21 19  1  0     0  0
 21  1  1  0     0  0
 15 17  1  0     0  0
 15  2  1  0     0  0
 19  3  1  0     0  0
 19  4  1  0     0  0
  5  1  1  0     0  0
 17  6  1  0     0  0
 17  7  1  0     0  0
  2  8  1  0     0  0
  3  9  2  0     0  0
  6 10  2  0     0  0
  6 11  1  0     0  0
 10 12  1  0     0  0
 11 13  2  0     0  0
 12 14  2  0     0  0
 14 23  1  0     0  0
  3  5  1  0     0  0
  4  7  1  0     0  0
  8 10  1  0     0  0
 13 14  1  0     0  0
 15 16  1  1     0  0
 17 18  1  6     0  0
 19 20  1  1     0  0
 21 22  1  6     0  0
 24 25  1  0     0  0
 25 26  1  0     0  0
 26 27  1  0     0  0
 27 28  1  0     0  0
 28 29  1  0     0  0
 24 29  1  0     0  0
 28 23  1  1     0  0
 26 30  1  1     0  0
 24 31  1  1     0  0
 27 32  1  6     0  0
 25 33  1  6     0  0
 31 34  2  0     0  0
 31 35  1  0     0  0
M  END
> <ID>
CHEBI:28919

> <NAME>
estrone 3-O-(beta-D-glucuronide)

> <DEFINITION>
The 3-β-D-glucuronide of estrone.

> <STAR>
3

> <SECONDARY_ID>
CHEBI:23973; CHEBI:42342; CHEBI:4872

> <SYNONYM>
Estrone glucuronide; Estrone beta-D-glucuronide; Estrone 3-glucuronide; estrone 3-glucosiduronic acid

> <IUPAC_NAME>
17-oxoestra-1,3,5(10)-trien-3-yl beta-D-glucopyranosiduronic acid

> <FORMULA>
C24H30O8

> <MASS>
446.491

> <MONOISOTOPIC_MASS>
446.19407

> <CHARGE>
0

> <SMILES>
C1[C@]2([C@]3([C@@](C4=C(C=C(O[C@H]5[C@@H]([C@H]([C@@H]([C@H](O5)C(=O)O)O)O)O)C=C4)CC3)(CC[C@@]2(C(=O)C1)C)[H])[H])[H]

> <INCHI>
InChI=1S/C24H30O8/c1-24-9-8-14-13-5-3-12(10-11(13)2-4-15(14)16(24)6-7-17(24)25)31-23-20(28)18(26)19(27)21(32-23)22(29)30/h3,5,10,14-16,18-21,23,26-28H,2,4,6-9H2,1H3,(H,29,30)/t14-,15-,16+,18+,19+,20-,21+,23-,24+/m1/s1

> <INCHIKEY>
FJAZVHYPASAQKM-JBAURARKSA-N

> <CAS_REGISTRY_NUMBER>
2479-90-5

> <KEGG_COMPOUND_ACCESSION>
C11133

> <LIPID_MAPS_INSTANCE_ACCESSION>
LMST05010011

> <PUBMED_CITATION>
9261086

$$$$

Marvin  11260814222D          

  6  5  0  0  0  0            999 V2000
   -1.7860   -0.2062    0.0000 C   0  0  0  0  0  0  0  0  0  0  0  0
   -1.0716    0.2063    0.0000 C   0  0  0  0  0  0  0  0  0  0  0  0
   -0.3572   -0.2063    0.0000 C   0  0  0  0  0  0  0  0  0  0  0  0
    0.3572    0.2063    0.0000 C   0  0  0  0  0  0  0  0  0  0  0  0
    1.0716   -0.2063    0.0000 C   0  0  0  0  0  0  0  0  0  0  0  0
    1.7860    0.2063    0.0000 C   0  0  0  0  0  0  0  0  0  0  0  0
  2  1  1  0  0  0  0
  3  2  1  0  0  0  0
  4  3  1  0  0  0  0
  5  4  1  0  0  0  0
  6  5  1  0  0  0  0
M  END
> <ID>
CHEBI:29021

> <NAME>
hexane

> <DEFINITION>
An unbranched alkane containing six carbon atoms.

> <STAR>
3

> <SECONDARY_ID>
CHEBI:43148; CHEBI:10606; CHEBI:24566; CHEBI:24568

> <SYNONYM>
n-Hexane; HEXANE; Hexane; Hexan; CH3-[CH2]4-CH3

> <IUPAC_NAME>
hexane

> <FORMULA>
C6H14

> <MASS>
86.17536

> <MONOISOTOPIC_MASS>
86.10955

> <CHARGE>
0

> <SMILES>
CCCCCC

> <INCHI>
InChI=1S/C6H14/c1-3-5-6-4-2/h3-6H2,1-2H3

> <INCHIKEY>
VLKZOEOYAKHREP-UHFFFAOYSA-N

> <BEILSTEIN_REGISTRY_NUMBER>
1730733

> <CAS_REGISTRY_NUMBER>
110-54-3

> <GMELIN_REGISTRY_NUMBER>
1985

> <REAXYS_REGISTRY_NUMBER>
1730733

> <CHEMIDPLUS>
110-54-3

> <DRUGBANK_ACCESSION>
DB02764

> <HMDB_ACCESSION>
HMDB0029600

> <KEGG_COMPOUND_ACCESSION>
C11271

> <LIPID_MAPS_INSTANCE_ACCESSION>
LMFA11000007

> <NIST_CHEMISTRY_WEBBOOK>
110-54-3

> <PDBECHEM_ACCESSION>
HEX

> <WIKIPEDIA_ACCESSION>
Hexane

> <PUBMED_CITATION>
11292478; 11684179; 11886809; 15325316; 18231777; 19229957; 19384711; 23452516; 23567114; 23620851; 23740543; 23822317; 23931182; 7612176

$$$$

Marvin  08110813492D          

 16 16  0  0  1  0            999 V2000
   -0.7145    0.4125    0.0000 C   0  0  1  0  0  0  0  0  0  0  0  0
    0.0000    0.8250    0.0000 O   0  0  0  0  0  0  0  0  0  0  0  0
    0.7145    0.4125    0.0000 C   0  0  1  0  0  0  0  0  0  0  0  0
    0.7145   -0.4125    0.0000 C   0  0  1  0  0  0  0  0  0  0  0  0
    0.0000   -0.8250    0.0000 C   0  0  2  0  0  0  0  0  0  0  0  0
   -0.7145   -0.4125    0.0000 C   0  0  2  0  0  0  0  0  0  0  0  0
    1.4289   -0.8250    0.0000 O   0  0  0  0  0  0  0  0  0  0  0  0
    0.0000   -1.6500    0.0000 O   0  0  0  0  0  0  0  0  0  0  0  0
   -1.4289   -0.8250    0.0000 O   0  0  0  0  0  0  0  0  0  0  0  0
   -1.4289    0.8250    0.0000 C   0  0  0  0  0  0  0  0  0  0  0  0
   -2.1434    0.4125    0.0000 O   0  0  0  0  0  0  0  0  0  0  0  0
    1.4289    0.8250    0.0000 O   0  0  0  0  0  0  0  0  0  0  0  0
    2.1434   -0.4125    0.0000 O   0  0  0  0  0  0  0  0  0  0  0  0
    2.1434    1.2375    0.0000 O   0  0  0  0  0  0  0  0  0  0  0  0
    2.1434    0.4125    0.0000 P   0  0  3  0  0  0  0  0  0  0  0  0
    2.8579    0.8250    0.0000 O   0  0  0  0  0  0  0  0  0  0  0  0
  1 10  1  1  0  0  0
  2  1  1  0  0  0  0
  3  2  1  0  0  0  0
  3 12  1  6  0  0  0
  3  4  1  0  0  0  0
  4  7  1  6  0  0  0
  4  5  1  0  0  0  0
  5  8  1  1  0  0  0
  5  6  1  0  0  0  0
  1  6  1  0  0  0  0
  6  9  1  6  0  0  0
 10 11  1  0  0  0  0
 15 12  1  0  0  0  0
 13 15  2  0  0  0  0
 15 14  1  0  0  0  0
 15 16  1  0  0  0  0
M  END
> <ID>
CHEBI:29042

> <NAME>
alpha-D-glucose 1-phosphate

> <DEFINITION>
A D-glucopyranose 1-phosphate in which the anomeric centre has α-configuration.

> <STAR>
3

> <SECONDARY_ID>
CHEBI:12320; CHEBI:42623; CHEBI:10246; CHEBI:12970; CHEBI:21004

> <SYNONYM>
D-Glucose alpha-1-phosphate; D-Glucose 1-phosphate; Cori ester; ALPHA-D-GLUCOSE-1-PHOSPHATE; alpha-D-Glucose-1-phosphate; alpha-D-Glucose 1-phosphate; alpha-D-glucopyranosyl phosphate; 1-O-phosphono-alpha-D-glucopyranose

> <IUPAC_NAME>
alpha-D-glucopyranose 1-(dihydrogen phosphate)

> <FORMULA>
C6H13O9P

> <MASS>
260.13578

> <MONOISOTOPIC_MASS>
260.02972

> <CHARGE>
0

> <SMILES>
OC[C@H]1O[C@H](OP(O)(O)=O)[C@H](O)[C@@H](O)[C@@H]1O

> <INCHI>
InChI=1S/C6H13O9P/c7-1-2-3(8)4(9)5(10)6(14-2)15-16(11,12)13/h2-10H,1H2,(H2,11,12,13)/t2-,3-,4+,5-,6-/m1/s1

> <INCHIKEY>
HXXFSFRBOHSIMQ-VFUOTHLCSA-N

> <BEILSTEIN_REGISTRY_NUMBER>
87853

> <CAS_REGISTRY_NUMBER>
59-56-3

> <REAXYS_REGISTRY_NUMBER>
87853

> <CHEMIDPLUS>
59-56-3

> <DRUGBANK_ACCESSION>
DB02843

> <HMDB_ACCESSION>
HMDB0001586

> <KEGG_COMPOUND_ACCESSION>
C00103

> <KNAPSACK_ACCESSION>
C00007482

> <METACYC_ACCESSION>
GLC-1-P

> <PDBECHEM_ACCESSION>
G1P

> <WIKIPEDIA_ACCESSION>
Glucose-1-phosphate

> <PUBMED_CITATION>
12596851; 8948464

$$$$
ChEBI
  Marvin  05181117432D          

 48 51  0  0  1  0            999 V2000
    9.6978  -31.0858    0.0000 C   0  0  2  0  0  0  0  0  0  0  0  0
    9.7012  -31.9099    0.0000 C   0  0  1  0  0  0  0  0  0  0  0  0
   10.4116  -30.6720    0.0000 O   0  0  0  0  0  0  0  0  0  0  0  0
    8.9840  -30.6755    0.0000 O   0  0  0  0  0  0  0  0  0  0  0  0
    8.9874  -32.3203    0.0000 C   0  0  1  0  0  0  0  0  0  0  0  0
   10.4150  -32.3237    0.0000 N   0  0  0  0  0  0  0  0  0  0  0  0
   10.4116  -29.8479    0.0000 C   0  0  2  0  0  0  0  0  0  0  0  0
    8.2702  -31.0892    0.0000 C   0  0  1  0  0  0  0  0  0  0  0  0
    8.9874  -33.1479    0.0000 O   0  0  0  0  0  0  0  0  0  0  0  0
    8.2736  -31.9134    0.0000 C   0  0  1  0  0  0  0  0  0  0  0  0
   10.4150  -33.1479    0.0000 C   0  0  0  0  0  0  0  0  0  0  0  0
   11.1254  -29.4375    0.0000 C   0  0  2  0  0  0  0  0  0  0  0  0
    9.6943  -29.4410    0.0000 C   0  0  2  0  0  0  0  0  0  0  0  0
    7.5564  -30.6789    0.0000 C   0  0  0  0  0  0  0  0  0  0  0  0
    8.2702  -33.5617    0.0000 C   0  0  2  0  0  0  0  0  0  0  0  0
    7.5598  -32.3306    0.0000 O   0  0  0  0  0  0  0  0  0  0  0  0
   11.1288  -33.5617    0.0000 C   0  0  0  0  0  0  0  0  0  0  0  0
    9.7012  -33.5617    0.0000 O   0  0  0  0  0  0  0  0  0  0  0  0
   11.1219  -28.6134    0.0000 C   0  0  2  0  0  0  0  0  0  0  0  0
   11.8392  -29.8479    0.0000 O   0  0  0  0  0  0  0  0  0  0  0  0
    9.6943  -28.6134    0.0000 C   0  0  2  0  0  0  0  0  0  0  0  0
    8.9840  -29.8548    0.0000 O   0  0  0  0  0  0  0  0  0  0  0  0
    6.8426  -31.0927    0.0000 O   0  0  0  0  0  0  0  0  0  0  0  0
    7.5495  -33.1479    0.0000 O   0  0  0  0  0  0  0  0  0  0  0  0
    8.2702  -34.3892    0.0000 C   0  0  1  0  0  0  0  0  0  0  0  0
   11.8357  -28.1961    0.0000 O   0  0  0  0  0  0  0  0  0  0  0  0
   10.4081  -28.1996    0.0000 O   0  0  0  0  0  0  0  0  0  0  0  0
    8.9771  -28.2030    0.0000 C   0  0  0  0  0  0  0  0  0  0  0  0
    6.8392  -33.5617    0.0000 C   0  0  1  0  0  0  0  0  0  0  0  0
    7.5495  -34.8065    0.0000 C   0  0  2  0  0  0  0  0  0  0  0  0
    8.9874  -34.8065    0.0000 O   0  0  0  0  0  0  0  0  0  0  0  0
   12.5461  -27.5892    0.0000 C   0  0  1  0  0  0  0  0  0  0  0  0
    8.2633  -28.6168    0.0000 O   0  0  0  0  0  0  0  0  0  0  0  0
    6.8392  -34.3892    0.0000 C   0  0  1  0  0  0  0  0  0  0  0  0
    6.1254  -33.1479    0.0000 C   0  0  0  0  0  0  0  0  0  0  0  0
    7.5564  -35.6341    0.0000 O   0  0  0  0  0  0  0  0  0  0  0  0
   13.2564  -28.0030    0.0000 C   0  0  1  0  0  0  0  0  0  0  0  0
   12.5461  -26.7732    0.0000 C   0  0  2  0  0  0  0  0  0  0  0  0
    6.1254  -34.8065    0.0000 O   0  0  0  0  0  0  0  0  0  0  0  0
   13.9736  -27.5927    0.0000 C   0  0  2  0  0  0  0  0  0  0  0  0
   13.2529  -28.8306    0.0000 O   0  0  0  0  0  0  0  0  0  0  0  0
   13.2633  -26.3585    0.0000 O   0  0  0  0  0  0  0  0  0  0  0  0
   13.9771  -26.7697    0.0000 C   0  0  0  0  0  0  0  0  0  0  0  0
   14.6874  -28.0099    0.0000 O   0  0  0  0  0  0  0  0  0  0  0  0
   14.6909  -26.3634    0.0000 O   0  0  0  0  0  0  0  0  0  0  0  0
   11.8315  -26.3609    0.0000 C   0  0  0  0  0  0  0  0  0  0  0  0
   11.1120  -26.7691    0.0000 O   0  0  0  0  0  0  0  0  0  0  0  0
    5.4109  -33.5604    0.0000 O   0  0  0  0  0  0  0  0  0  0  0  0
  1  3  1  1  0  0  0
  1  4  1  0  0  0  0
  2  5  1  0  0  0  0
  2  6  1  6  0  0  0
  7  3  1  1  0  0  0
  4  8  1  0  0  0  0
  5  9  1  1  0  0  0
  5 10  1  0  0  0  0
  6 11  1  0  0  0  0
  7 12  1  0  0  0  0
  7 13  1  0  0  0  0
  8 14  1  1  0  0  0
 15  9  1  1  0  0  0
 10 16  1  6  0  0  0
 11 17  1  0  0  0  0
 11 18  2  0  0  0  0
 12 19  1  0  0  0  0
 12 20  1  6  0  0  0
 13 21  1  0  0  0  0
 13 22  1  1  0  0  0
 14 23  1  0  0  0  0
 15 24  1  0  0  0  0
 15 25  1  0  0  0  0
 19 26  1  1  0  0  0
 19 27  1  0  0  0  0
 21 28  1  1  0  0  0
 24 29  1  0  0  0  0
 25 30  1  0  0  0  0
 25 31  1  6  0  0  0
 32 26  1  6  0  0  0
 28 33  1  0  0  0  0
 29 34  1  0  0  0  0
 29 35  1  1  0  0  0
 30 36  1  1  0  0  0
 32 37  1  0  0  0  0
 32 38  1  0  0  0  0
 34 39  1  1  0  0  0
 37 40  1  0  0  0  0
 37 41  1  1  0  0  0
 38 42  1  0  0  0  0
 40 43  1  0  0  0  0
 40 44  1  6  0  0  0
 43 45  1  0  0  0  0
  8 10  1  0  0  0  0
 21 27  1  0  0  0  0
 30 34  1  0  0  0  0
 42 43  1  0  0  0  0
 38 46  1  1  0  0  0
  1  2  1  0  0  0  0
 46 47  1  0  0  0  0
 35 48  1  0  0  0  0
M  END
> <ID>
CHEBI:30248

> <NAME>
beta-D-Gal-(1->3)-beta-D-GlcNAc-(1->3)-beta-D-Gal-(1->4)-D-Glc

> <DEFINITION>
A tetrasaccharide comprising residues of galactose, N-acetylglucosamine, galactose and glucose in a linear sequence, all joined by β-linkages.

> <STAR>
3

> <SECONDARY_ID>
CHEBI:22771; CHEBI:12348; CHEBI:10379; CHEBI:22759; CHEBI:13377; CHEBI:28015

> <SYNONYM>
r-Lactotetraose-HSA; LNT; Lc4; Lacto-N-tetraose; Galbeta1-3GlcNAcbeta1-3Galbeta1-4Glc; beta-Gal1,3-beta-GlcNAc1,3-beta-Gal1,4-Glc; beta-D-Gal-(1->3)-beta-D-GlcNAc-(1->3)-beta-D-Gal-(1->4)-D-Glc; beta-D-Gal-(1->3)-beta-D-GlcNAc-(1->3)-beta-D-Gal-(1->4)-D-Glc; beta-D-gal-(1->3)-beta-D-glcNAc-(1->3)-beta-D-gal-(1->4)-D-glc; (Gal)2 (Glc)1 (GlcNAc)1

> <IUPAC_NAME>
beta-D-galactopyranosyl-(1->3)-2-acetamido-2-deoxy-beta-D-glucopyranosyl-(1->3)-beta-D-galactopyranosyl-(1->4)-D-glucopyranose

> <FORMULA>
C26H45NO21

> <MASS>
707.62960

> <MONOISOTOPIC_MASS>
707.24841

> <CHARGE>
0

> <SMILES>
CC(=O)N[C@H]1[C@@H](O[C@H](CO)[C@@H](O)[C@@H]1O[C@@H]1O[C@H](CO)[C@H](O)[C@H](O)[C@H]1O)O[C@H]1[C@@H](O)[C@@H](CO)O[C@@H](O[C@H]2[C@H](O)[C@@H](O)C(O)O[C@@H]2CO)[C@@H]1O

> <INCHI>
InChI=1S/C26H45NO21/c1-6(32)27-11-21(47-25-18(39)15(36)12(33)7(2-28)44-25)13(34)8(3-29)43-24(11)48-22-14(35)9(4-30)45-26(19(22)40)46-20-10(5-31)42-23(41)17(38)16(20)37/h7-26,28-31,33-41H,2-5H2,1H3,(H,27,32)/t7-,8-,9-,10-,11-,12+,13-,14+,15+,16-,17-,18-,19-,20-,21-,22+,23?,24+,25+,26+/m1/s1

> <INCHIKEY>
AXQLFFDZXPOFPO-FSGZUBPKSA-N

> <REAXYS_REGISTRY_NUMBER>
4780271

> <KEGG_COMPOUND_ACCESSION>
C06371

> <KEGG_GLYCAN_ACCESSION>
G00395

> <PUBMED_CITATION>
10420591; 10571152; 11425797; 12950254; 15158661; 16442513; 18280461; 1954629; 2413844; 2776132; 3274083; 6083447; 6194884; 7574700; 7790083; 9271064

$$$$

Marvin  04191314472D          

 14 15  0  0  0  0            999 V2000
   17.9417   -6.1272    0.0000 C   0  0  0  0  0  0  0  0  0  0  0  0
   16.8617   -6.9117    0.0000 N   0  0  0  0  0  0  0  0  0  0  0  0
   16.0648   -7.1253    0.0000 C   0  0  0  0  0  0  0  0  0  0  0  0
   17.1166   -6.1272    0.0000 C   0  0  0  0  0  0  0  0  0  0  0  0
   16.7041   -5.4127    0.0000 C   0  0  0  0  0  0  0  0  0  0  0  0
   17.5292   -7.3967    0.0000 N   0  0  0  0  0  0  0  0  0  0  0  0
   17.5292   -8.2217    0.0000 C   0  0  0  0  0  0  0  0  0  0  0  0
   17.5292   -9.8717    0.0000 C   0  0  0  0  0  0  0  0  0  0  0  0
   18.2436   -9.4592    0.0000 C   0  0  0  0  0  0  0  0  0  0  0  0
   18.2436   -8.6342    0.0000 C   0  0  0  0  0  0  0  0  0  0  0  0
   16.8147   -8.6342    0.0000 C   0  0  0  0  0  0  0  0  0  0  0  0
   16.8147   -9.4592    0.0000 C   0  0  0  0  0  0  0  0  0  0  0  0
   18.1966   -6.9117    0.0000 C   0  0  0  0  0  0  0  0  0  0  0  0
   18.9935   -7.1253    0.0000 O   0  0  0  0  0  0  0  0  0  0  0  0
  6 13  1  0  0  0  0
  6  2  1  0  0  0  0
 13  1  1  0  0  0  0
  1  4  2  0  0  0  0
  4  2  1  0  0  0  0
  2  3  1  0  0  0  0
  4  5  1  0  0  0  0
  6  7  1  0  0  0  0
 10  7  2  0  0  0  0
  7 11  1  0  0  0  0
  8  9  2  0  0  0  0
  8 12  1  0  0  0  0
  9 10  1  0  0  0  0
 11 12  2  0  0  0  0
 13 14  2  0  0  0  0
M  END
> <ID>
CHEBI:31225

> <NAME>
antipyrine

> <DEFINITION>
A  pyrazolone derivative that is 1,2-dihydropyrazol-3-one substituted with methyl groups at C-1 and C-5 and with a phenyl group at N-2.

> <STAR>
3

> <SYNONYM>
Phenazone; Antipyrine; Antipyrine; 2,3-Dimethyl-1-phenyl-5-pyrazolone; 1,2-Dihydro-1,5-dimethyl-2-phenyl-3H-pyrazol-3-one

> <IUPAC_NAME>
1,5-dimethyl-2-phenyl-1,2-dihydro-3H-pyrazol-3-one

> <INN>
phenazonum; phenazone; phenazone; fenazona

> <FORMULA>
C11H12N2O

> <MASS>
188.22580

> <MONOISOTOPIC_MASS>
188.09496

> <CHARGE>
0

> <SMILES>
Cc1cc(=O)n(-c2ccccc2)n1C

> <INCHI>
InChI=1S/C11H12N2O/c1-9-8-11(14)13(12(9)2)10-6-4-3-5-7-10/h3-8H,1-2H3

> <INCHIKEY>
VEQOALNAAJBPNY-UHFFFAOYSA-N

> <BEILSTEIN_REGISTRY_NUMBER>
157775

> <CAS_REGISTRY_NUMBER>
60-80-0

> <REAXYS_REGISTRY_NUMBER>
157775

> <CHEMIDPLUS>
60-80-0

> <DRUGBANK_ACCESSION>
DB01435

> <HMDB_ACCESSION>
HMDB0015503

> <KEGG_COMPOUND_ACCESSION>
C13244

> <KEGG_DRUG_ACCESSION>
D01776

> <LINCS_ACCESSION>
LSM-3038

> <NIST_CHEMISTRY_WEBBOOK>
60-80-0

> <WIKIPEDIA_ACCESSION>
Antipyrine

> <PUBMED_CITATION>
24345239; 25038548; 25435228; 25631541; 26703262; 3425858

$$$$

Marvin  05041015302D          

 16 17  0  0  0  0            999 V2000
   -0.6312    0.1434    0.0000 C   0  0  0  0  0  0  0  0  0  0  0  0
    0.1937    0.1434    0.0000 C   0  0  0  0  0  0  0  0  0  0  0  0
    0.5245    1.5927    0.0000 C   0  0  0  0  0  0  0  0  0  0  0  0
   -0.2250    0.5897    0.0000 N   0  0  0  0  0  0  0  0  0  0  0  0
   -0.2250    1.4147    0.0000 C   0  0  0  0  0  0  0  0  0  0  0  0
   -0.2187    1.9507    0.0000 C   0  0  1  0  0  0  0  0  0  0  0  0
   -0.9620    1.5927    0.0000 C   0  0  2  0  0  0  0  0  0  0  0  0
   -1.6765    2.8302    0.0000 O   0  0  0  0  0  0  0  0  0  0  0  0
   -1.6765    2.0052    0.0000 C   0  0  0  0  0  0  0  0  0  0  0  0
   -2.3910    1.5927    0.0000 O   0  0  0  0  0  0  0  0  0  0  0  0
   -3.1055    2.0052    0.0000 C   0  0  0  0  0  0  0  0  0  0  0  0
   -0.2187    2.7757    0.0000 O   0  0  0  0  0  0  0  0  0  0  0  0
   -1.1456    0.7885    0.0000 C   0  0  1  0  0  0  0  0  0  0  0  0
   -1.9425    0.5750    0.0000 H   0  0  0  0  0  0  0  0  0  0  0  0
    0.7081    0.7885    0.0000 C   0  0  1  0  0  0  0  0  0  0  0  0
    1.5050    0.5750    0.0000 H   0  0  0  0  0  0  0  0  0  0  0  0
  6  7  1  0  0  0  0
  3  6  1  0  0  0  0
  7 13  1  0  0  0  0
 13  1  1  0  0  0  0
  1  2  1  0  0  0  0
  2 15  1  0  0  0  0
 15  3  1  0  0  0  0
 13  4  1  1  0  0  0
 15  4  1  1  0  0  0
  4  5  1  0  0  0  0
  6 12  1  1  0  0  0
  7  9  1  1  0  0  0
  9  8  2  0  0  0  0
  9 10  1  0  0  0  0
 10 11  1  0  0  0  0
 13 14  1  1  0  0  0
 15 16  1  1  0  0  0
M  END
> <ID>
CHEBI:31529

> <NAME>
ecgonine methyl ester

> <DEFINITION>
The O-debenzoyl analogue of cocaine.

> <STAR>
3

> <SYNONYM>
Methyl ecgonine; Methyl ecgonine

> <IUPAC_NAME>
methyl (1R,2R,3S,5S)-3-hydroxy-8-methyl-8-azabicyclo[3.2.1]octane-2-carboxylate; (1R,2R,3S,5S)-2-(methoxycarbonyl)tropan-3-ol

> <FORMULA>
C10H17NO3

> <MASS>
199.24690

> <MONOISOTOPIC_MASS>
199.12084

> <CHARGE>
0

> <SMILES>
[H][C@]12CC[C@]([H])([C@H]([C@@H](O)C1)C(=O)OC)N2C

> <INCHI>
InChI=1S/C10H17NO3/c1-11-6-3-4-7(11)9(8(12)5-6)10(13)14-2/h6-9,12H,3-5H2,1-2H3/t6-,7+,8-,9+/m0/s1

> <INCHIKEY>
QIQNNBXHAYSQRY-UYXSQOIJSA-N

> <BEILSTEIN_REGISTRY_NUMBER>
83529

> <CAS_REGISTRY_NUMBER>
7143-09-1

> <REAXYS_REGISTRY_NUMBER>
83529

> <CHEMIDPLUS>
7143-09-1

> <DRUGBANK_ACCESSION>
DB04688

> <KEGG_COMPOUND_ACCESSION>
C12448

> <NIST_CHEMISTRY_WEBBOOK>
7143-09-1

> <PDBECHEM_ACCESSION>
ECG

> <PUBMED_CITATION>
11469854; 16472740; 20052577; 20077067; 21046786; 21885621; 22018173

$$$$

Ketcher 02031613432D 1   1.00000     0.00000     0

 25 29  0     0  0            999 V2000
    3.4641    0.8750    0.0000 O   0  0  0  0  0  0  0  0  0  0  0  0
    2.5981    0.3750    0.0000 C   0  0  0  0  0  0  0  0  0  0  0  0
    1.7320   -1.1250    0.0000 C   0  0  0  0  0  0  0  0  0  0  0  0
    2.5981   -0.6250    0.0000 C   0  0  0  0  0  0  0  0  0  0  0  0
    0.0000   -1.1250    0.0000 C   0  0  0  0  0  0  0  0  0  0  0  0
    0.8661   -0.6250    0.0000 C   0  0  0  0  0  0  0  0  0  0  0  0
   -0.8661   -0.6250    0.0000 C   0  0  0  0  0  0  0  0  0  0  0  0
    0.8661    0.3750    0.0000 C   0  0  0  0  0  0  0  0  0  0  0  0
   -0.8661    0.3750    0.0000 C   0  0  0  0  0  0  0  0  0  0  0  0
   -1.7320   -1.1250    0.0000 C   0  0  0  0  0  0  0  0  0  0  0  0
    1.7320    0.8750    0.0000 C   0  0  0  0  0  0  0  0  0  0  0  0
    0.0000    0.8750    0.0000 O   0  0  0  0  0  0  0  0  0  0  0  0
   -1.7320    0.8750    0.0000 C   0  0  0  0  0  0  0  0  0  0  0  0
   -2.5981   -0.6250    0.0000 C   0  0  0  0  0  0  0  0  0  0  0  0
   -2.5981    0.3750    0.0000 C   0  0  0  0  0  0  0  0  0  0  0  0
   -3.4641    0.8750    0.0000 O   0  0  0  0  0  0  0  0  0  0  0  0
    0.5000   -2.6639    0.0000 C   0  0  0  0  0  0  0  0  0  0  0  0
    0.8090   -1.7127    0.0000 O   0  0  0  0  0  0  0  0  0  0  0  0
   -0.5000   -2.6639    0.0000 C   0  0  0  0  0  0  0  0  0  0  0  0
   -0.8090   -1.7127    0.0000 C   0  0  0  0  0  0  0  0  0  0  0  0
   -1.7872   -1.5048    0.0000 C   0  0  0  0  0  0  0  0  0  0  0  0
   -2.4562   -2.2480    0.0000 C   0  0  0  0  0  0  0  0  0  0  0  0
   -1.1691   -3.4070    0.0000 C   0  0  0  0  0  0  0  0  0  0  0  0
    1.0878   -3.4728    0.0000 O   0  0  0  0  0  0  0  0  0  0  0  0
   -2.1473   -3.1990    0.0000 C   0  0  0  0  0  0  0  0  0  0  0  0
  2  1  1  0     0  0
  4  2  2  0     0  0
  3  4  1  0     0  0
 18  5  1  0     0  0
  5 20  1  0     0  0
  6  3  2  0     0  0
  5  6  1  0     0  0
  5  7  1  0     0  0
  6  8  1  0     0  0
  7  9  1  0     0  0
  7 10  2  0     0  0
 11  2  1  0     0  0
  8 11  2  0     0  0
  9 12  1  0     0  0
  8 12  1  0     0  0
  9 13  2  0     0  0
 10 14  1  0     0  0
 13 15  1  0     0  0
 14 15  2  0     0  0
 15 16  1  0     0  0
 17 18  1  0     0  0
 19 17  1  0     0  0
 17 24  2  0     0  0
 19 20  2  0     0  0
 23 19  1  0     0  0
 20 21  1  0     0  0
 21 22  2  0     0  0
 22 25  1  0     0  0
 25 23  2  0     0  0
M  END
> <ID>
CHEBI:31624

> <NAME>
fluorescein

> <DEFINITION>
A xanthene dye that is highly fluorescent, detectable even when present in minute quantities. Used forensically to detect traces of blood, in analytical chemistry as an indicator in silver nitrate titrations and in microscopy.

> <STAR>
3

> <SECONDARY_ID>
CHEBI:606590

> <SYNONYM>
Yellow fluorescein; Solvent Yellow 94; resorcinolphthalein; Japan Yellow 201; Fluoreszein; fluoresceine; D&C Yellow No. 7; D and C Yellow No. 7; C.I. Solvent Yellow 94; C.I. 45350; 9-(o-carboxyphenyl)-6-hydroxy-3H-xanthen-3-one; 9-(o-carboxyphenyl)-6-hydroxy-3-isoxanthenone; 3,6-fluorandiol; 3',6'-dihydroxyfluoran

> <IUPAC_NAME>
3',6'-dihydroxy-3H-spiro[2-benzofuran-1,9'-xanthen]-3-one

> <FORMULA>
C20H12O5

> <MASS>
332.307

> <MONOISOTOPIC_MASS>
332.06847

> <CHARGE>
0

> <SMILES>
OC1=CC=C2C3(OC(C4=C3C=CC=C4)=O)C=5C(OC2=C1)=CC(=CC5)O

> <INCHI>
InChI=1S/C20H12O5/c21-11-5-7-15-17(9-11)24-18-10-12(22)6-8-16(18)20(15)14-4-2-1-3-13(14)19(23)25-20/h1-10,21-22H

> <INCHIKEY>
GNBHRKFJIUUOQI-UHFFFAOYSA-N

> <BEILSTEIN_REGISTRY_NUMBER>
94324

> <CAS_REGISTRY_NUMBER>
2321-07-5

> <GMELIN_REGISTRY_NUMBER>
248626

> <REAXYS_REGISTRY_NUMBER>
94324

> <CHEMIDPLUS>
2321-07-5

> <DRUGBANK_ACCESSION>
DB00693

> <HMDB_ACCESSION>
HMDB0014831

> <KEGG_DRUG_ACCESSION>
D01261

> <PDB_ACCESSION>
4FAB

> <WIKIPEDIA_ACCESSION>
Fluorescein

> <PUBMED_CITATION>
1517825; 15465055; 16195545; 20371259; 2508085; 26756394; 7868912

$$$$

Marvin  11161211412D          

 26 28  0  0  0  0            999 V2000
    7.8126  -10.1567    0.0000 C   0  0  0  0  0  0  0  0  0  0  0  0
    8.5173  -11.3942    0.0000 N   0  0  0  0  0  0  0  0  0  0  0  0
    9.2219  -12.6317    0.0000 C   0  0  0  0  0  0  0  0  0  0  0  0
    8.5345   -9.7556    0.0000 C   0  0  0  0  0  0  0  0  0  0  0  0
    7.8068  -10.9817    0.0000 C   0  0  0  0  0  0  0  0  0  0  0  0
    8.5173  -12.2192    0.0000 C   0  0  0  0  0  0  0  0  0  0  0  0
    9.2219  -13.4567    0.0000 C   0  0  0  0  0  0  0  0  0  0  0  0
    9.9381  -13.8692    0.0000 C   0  0  0  0  0  0  0  0  0  0  0  0
    9.9381  -12.2192    0.0000 C   0  0  0  0  0  0  0  0  0  0  0  0
    8.5001  -13.8692    0.0000 N   0  0  0  0  0  0  0  0  0  0  0  0
    9.2391  -10.1739    0.0000 O   0  0  0  0  0  0  0  0  0  0  0  0
    8.5345   -8.9306    0.0000 O   0  0  0  0  0  0  0  0  0  0  0  0
   10.6427  -13.4567    0.0000 C   0  0  0  0  0  0  0  0  0  0  0  0
    7.7954  -12.6317    0.0000 C   0  0  0  0  0  0  0  0  0  0  0  0
   10.6427  -12.6317    0.0000 C   0  0  0  0  0  0  0  0  0  0  0  0
    9.9610   -9.7728    0.0000 C   0  0  0  0  0  0  0  0  0  0  0  0
    7.7954  -13.4567    0.0000 C   0  0  0  0  0  0  0  0  0  0  0  0
   10.6657  -10.1910    0.0000 C   0  0  0  0  0  0  0  0  0  0  0  0
   11.3532  -13.8692    0.0000 Cl  0  0  0  0  0  0  0  0  0  0  0  0
    7.1079   -9.7442    0.0000 C   0  0  0  0  0  0  0  0  0  0  0  0
   10.6657  -11.0160    0.0000 O   0  0  0  0  0  0  0  0  0  0  0  0
    7.0907  -11.3942    0.0000 C   0  0  0  0  0  0  0  0  0  0  0  0
   12.1037  -10.2025    0.0000 O   0  0  0  0  0  0  0  0  0  0  0  0
   11.3876   -9.7785    0.0000 C   0  0  0  0  0  0  0  0  0  0  0  0
    6.3860  -10.1509    0.0000 C   0  0  0  0  0  0  0  0  0  0  0  0
    6.3802  -10.9759    0.0000 C   0  0  0  0  0  0  0  0  0  0  0  0
  2  5  1  0  0  0  0
  3  6  2  0  0  0  0
  4  1  1  0  0  0  0
  5  1  2  0  0  0  0
  6  2  1  0  0  0  0
  7  3  1  0  0  0  0
  8  7  1  0  0  0  0
  9  3  1  0  0  0  0
 10 17  1  0  0  0  0
 11  4  1  0  0  0  0
 12  4  2  0  0  0  0
 13 15  1  0  0  0  0
 14  6  1  0  0  0  0
 15  9  2  0  0  0  0
 16 11  1  0  0  0  0
 17 14  2  0  0  0  0
 18 16  1  0  0  0  0
 19 13  1  0  0  0  0
 20  1  1  0  0  0  0
 21 18  1  0  0  0  0
 22  5  1  0  0  0  0
 23 24  1  0  0  0  0
 24 18  1  0  0  0  0
 25 20  2  0  0  0  0
 26 25  1  0  0  0  0
 26 22  2  0  0  0  0
 10  7  2  0  0  0  0
 13  8  2  0  0  0  0
M  END
> <ID>
CHEBI:31653

> <NAME>
glafenine

> <DEFINITION>
A carboxylic ester that is 2,3-dihydroxypropyl anthranilate in which the amino group is substituted by a 7-chloroquinolin-4-yl group. A non-steroidal anti-inflammatory drug, glafenine and its hydrochloride salt were used for the relief of all types of pain, but high incidence of anaphylactic reactions resulted in their withdrawal from the market.

> <STAR>
3

> <SECONDARY_ID>
CHEBI:344737

> <SYNONYM>
Glycerylaminophenaquine; Glifanan; Glifan; Glicafan; Glaphenine; Glaphenin; Glafenin; 4-(2'-beta,gamma-Dihydroxypropoxycarbonylphenylamino)-7-chloroquinoline; 4-((2-Carboxyphenyl)amino)-7-chloroquinoline alpha-monoglyceride; 2,3-Dihydroxypropyl N-(7-chloro-4-quinolyl) anthranilate

> <IUPAC_NAME>
2,3-dihydroxypropyl 2-[(7-chloroquinolin-4-yl)amino]benzoate

> <INN>
glafeninum; glafenine; glafenine; glafenina

> <FORMULA>
C19H17ClN2O4

> <MASS>
372.80200

> <MONOISOTOPIC_MASS>
372.08768

> <CHARGE>
0

> <SMILES>
OCC(O)COC(=O)c1ccccc1Nc1ccnc2cc(Cl)ccc12

> <INCHI>
InChI=1S/C19H17ClN2O4/c20-12-5-6-14-17(7-8-21-18(14)9-12)22-16-4-2-1-3-15(16)19(25)26-11-13(24)10-23/h1-9,13,23-24H,10-11H2,(H,21,22)

> <INCHIKEY>
GWOFUCIGLDBNKM-UHFFFAOYSA-N

> <BEILSTEIN_REGISTRY_NUMBER>
497124

> <CAS_REGISTRY_NUMBER>
3820-67-5

> <REAXYS_REGISTRY_NUMBER>
497124

> <CHEMIDPLUS>
3820-67-5

> <KEGG_DRUG_ACCESSION>
D01351

> <LINCS_ACCESSION>
LSM-4419

> <NIST_CHEMISTRY_WEBBOOK>
3820-67-5

> <WIKIPEDIA_ACCESSION>
Glafenine

> <PUBMED_CITATION>
19567678; 2210868

$$$$

Ketcher 06171613212D 1   1.00000     0.00000     0

 26 28  0     0  0            999 V2000
   23.1664  -10.3849    0.0000 C   0  0  0  0  0  0  0  0  0  0  0  0
   23.1664  -11.3834    0.0000 C   0  0  0  0  0  0  0  0  0  0  0  0
   24.0151  -11.8827    0.0000 N   0  0  0  0  0  0  0  0  0  0  0  0
   24.9138  -11.3834    0.0000 C   0  0  0  0  0  0  0  0  0  0  0  0
   24.9138  -10.3849    0.0000 C   0  0  0  0  0  0  0  0  0  0  0  0
   24.0650   -9.8856    0.0000 C   0  0  0  0  0  0  0  0  0  0  0  0
   21.4687  -10.3849    0.0000 C   0  0  0  0  0  0  0  0  0  0  0  0
   21.4687  -11.3834    0.0000 C   0  0  0  0  0  0  0  0  0  0  0  0
   22.3175  -11.8827    0.0000 C   0  0  0  0  0  0  0  0  0  0  0  0
   22.3175   -9.8856    0.0000 C   0  0  0  0  0  0  0  0  0  0  0  0
   20.5700  -11.8827    0.0000 N   0  0  0  0  0  0  0  0  0  0  0  0
   19.7213  -11.3834    0.0000 C   0  0  0  0  0  0  0  0  0  0  0  0
   18.8725  -11.8827    0.0000 C   0  0  0  0  0  0  0  0  0  0  0  0
   18.8725  -12.8812    0.0000 N   0  0  0  0  0  0  0  0  0  0  0  0
   19.7213  -13.3805    0.0000 C   0  0  0  0  0  0  0  0  0  0  0  0
   20.5700  -12.8812    0.0000 C   0  0  0  0  0  0  0  0  0  0  0  0
   24.0650   -8.8871    0.0000 O   0  0  0  0  0  0  0  0  0  0  0  0
   25.7626   -9.8856    0.0000 C   0  0  0  0  0  0  0  0  0  0  0  0
   26.6613  -10.3849    0.0000 O   0  0  0  0  0  0  0  0  0  0  0  0
   25.7626   -8.8871    0.0000 O   0  0  0  0  0  0  0  0  0  0  0  0
   20.5700   -9.8856    0.0000 F   0  0  0  0  0  0  0  0  0  0  0  0
   22.3175  -12.8812    0.0000 F   0  0  0  0  0  0  0  0  0  0  0  0
   17.9738  -13.3805    0.0000 C   0  0  0  0  0  0  0  0  0  0  0  0
   24.0151  -12.8812    0.0000 C   0  0  0  0  0  0  0  0  0  0  0  0
   24.8639  -13.3805    0.0000 C   0  0  0  0  0  0  0  0  0  0  0  0
   24.8639  -14.3805    0.0000 F   0  0  0  0  0  0  0  0  0  0  0  0
  1  2  2  0     0  0
  2  3  1  0     0  0
 11 12  1  0     0  0
 12 13  1  0     0  0
 13 14  1  0     0  0
 14 15  1  0     0  0
 15 16  1  0     0  0
 16 11  1  0     0  0
  8 11  1  0     0  0
  3  4  1  0     0  0
  6 17  2  0     0  0
  7  8  1  0     0  0
  5 18  1  0     0  0
  8  9  2  0     0  0
 18 19  1  0     0  0
  9  2  1  0     0  0
 18 20  2  0     0  0
  1 10  1  0     0  0
  7 21  1  0     0  0
 10  7  2  0     0  0
  9 22  1  0     0  0
  4  5  2  0     0  0
 14 23  1  0     0  0
  5  6  1  0     0  0
  3 24  1  0     0  0
  6  1  1  0     0  0
 24 25  1  0     0  0
 25 26  1  0     0  0
M  END
> <ID>
CHEBI:31810

> <NAME>
fleroxacin

> <DEFINITION>
A fluoroquinolone antibiotic that is 4-oxo-1,4-dihydroquinoline which is substituted at positions 1, 3, 6, 7 and 8 by 2-fluoroethyl, carboxy, fluoro, 4-methylpiperazin-1-yl and fluoro groups, respectively. It is active against many Gram-positive and Gram-negative bacteria.

> <STAR>
3

> <SYNONYM>
fleroxacinum; fleroxacino; fleroxacine; 6,8-difluoro-1-(2-fluoroethyl)-1,4-dihydro-7-(4-methyl-1-piperazinyl)-4-oxo-3-quinolinecarboxylic acid-

> <IUPAC_NAME>
6,8-difluoro-1-(2-fluoroethyl)-7-(4-methylpiperazin-1-yl)-4-oxo-1,4-dihydroquinoline-3-carboxylic acid

> <INN>
fleroxacin

> <FORMULA>
C17H18F3N3O3

> <MASS>
369.339

> <MONOISOTOPIC_MASS>
369.13003

> <CHARGE>
0

> <SMILES>
C12=C(N(C=C(C(O)=O)C1=O)CCF)C(=C(N3CCN(CC3)C)C(F)=C2)F

> <INCHI>
InChI=1S/C17H18F3N3O3/c1-21-4-6-22(7-5-21)15-12(19)8-10-14(13(15)20)23(3-2-18)9-11(16(10)24)17(25)26/h8-9H,2-7H2,1H3,(H,25,26)

> <INCHIKEY>
XBJBPGROQZJDOJ-UHFFFAOYSA-N

> <BEILSTEIN_REGISTRY_NUMBER>
4300996

> <CAS_REGISTRY_NUMBER>
79660-72-3

> <REAXYS_REGISTRY_NUMBER>
4300996

> <CHEMIDPLUS>
79660-72-3

> <DRUGBANK_ACCESSION>
DB04576

> <KEGG_COMPOUND_ACCESSION>
C13179

> <KEGG_DRUG_ACCESSION>
D01716

> <LINCS_ACCESSION>
LSM-6633

> <WIKIPEDIA_ACCESSION>
Fleroxacin

> <PUBMED_CITATION>
25143490; 26963935; 27301999; 3095363

$$$$

Marvin  02081017072D          

 13 13  0  0  1  0            999 V2000
    6.0166   -2.4652    0.0000 C   0  0  2  0  0  0  0  0  0  0  0  0
    5.3068   -2.8672    0.0000 C   0  0  2  0  0  0  0  0  0  0  0  0
    5.3151   -1.2180    0.0000 O   0  0  0  0  0  0  0  0  0  0  0  0
    6.0249   -1.6386    0.0000 C   0  0  2  0  0  0  0  0  0  0  0  0
    4.5970   -2.4509    0.0000 C   0  0  1  0  0  0  0  0  0  0  0  0
    4.5970   -1.6242    0.0000 C   0  0  1  0  0  0  0  0  0  0  0  0
    6.7264   -2.8815    0.0000 O   0  0  0  0  0  0  0  0  0  0  0  0
    5.2985   -3.6939    0.0000 O   0  0  0  0  0  0  0  0  0  0  0  0
    3.8788   -2.8654    0.0000 O   0  0  0  0  0  0  0  0  0  0  0  0
    6.7513   -1.2325    0.0000 O   0  0  0  0  0  0  0  0  0  0  0  0
    3.8872   -1.2037    0.0000 C   0  0  0  0  0  0  0  0  0  0  0  0
    3.8955   -0.3770    0.0000 O   0  0  0  0  0  0  0  0  0  0  0  0
    7.4611   -1.6530    0.0000 C   0  0  0  0  0  0  0  0  0  0  0  0
  2  1  1  0  0  0  0
  3  4  1  0  0  0  0
  4  1  1  0  0  0  0
  5  2  1  0  0  0  0
  6  3  1  0  0  0  0
  1  7  1  6  0  0  0
  2  8  1  1  0  0  0
  5  9  1  6  0  0  0
  4 10  1  6  0  0  0
  6 11  1  1  0  0  0
 12 11  1  0  0  0  0
 13 10  1  0  0  0  0
  6  5  1  0  0  0  0
M  END
> <ID>
CHEBI:320061

> <NAME>
methyl alpha-D-glucopyranoside

> <DEFINITION>
An α-D-glucopyranoside having a methyl substituent at the anomeric position.

> <STAR>
3

> <SECONDARY_ID>
CHEBI:42974

> <SYNONYM>
Methyl hexopyranoside; Methyl alpha-D-glucoside; Me alpha-Glc; alpha-Methylglucoside; alpha-Methyl-D-glucoside; alpha-Methyl D-glucose ether; alpha-D-methyl glucoside; 1-O-methyl-alpha-D-glucoside; 1-O-methyl-alpha-D-glucopyranoside; 1-O-methyl-alpha-D-glucopyranose

> <IUPAC_NAME>
methyl alpha-D-glucopyranoside

> <FORMULA>
C7H14O6

> <MASS>
194.18250

> <MONOISOTOPIC_MASS>
194.07904

> <CHARGE>
0

> <SMILES>
CO[C@H]1O[C@H](CO)[C@@H](O)[C@H](O)[C@H]1O

> <INCHI>
InChI=1S/C7H14O6/c1-12-7-6(11)5(10)4(9)3(2-8)13-7/h3-11H,2H2,1H3/t3-,4-,5+,6-,7+/m1/s1

> <INCHIKEY>
HOVAGTYPODGVJG-ZFYZTMLRSA-N

> <CAS_REGISTRY_NUMBER>
97-30-3

> <GMELIN_REGISTRY_NUMBER>
83829

> <REAXYS_REGISTRY_NUMBER>
81568

> <CHEMIDPLUS>
97-30-3

> <NIST_CHEMISTRY_WEBBOOK>
97-30-3

> <PDBECHEM_ACCESSION>
GYP

> <PUBMED_CITATION>
10692555; 1095369; 1256584; 16636060; 1812543; 188655; 19330624; 2510735; 3667518; 3791291; 4052413; 4851869; 7171588; 7504304; 7524207; 815827

$$$$

Marvin  03071215572D          

 13 13  0  0  0  0            999 V2000
   -0.2079   -1.6727    0.0000 C   0  0  0  0  0  0  0  0  0  0  0  0
   -0.2079   -2.4977    0.0000 C   0  0  0  0  0  0  0  0  0  0  0  0
   -0.9224   -1.2602    0.0000 C   0  0  0  0  0  0  0  0  0  0  0  0
   -0.9224   -2.9102    0.0000 C   0  0  0  0  0  0  0  0  0  0  0  0
   -1.6369   -1.6727    0.0000 C   0  0  0  0  0  0  0  0  0  0  0  0
   -1.6369   -2.4977    0.0000 C   0  0  0  0  0  0  0  0  0  0  0  0
    0.5066   -1.2602    0.0000 C   0  0  0  0  0  0  0  0  0  0  0  0
    1.2210   -1.6726    0.0000 O   0  0  0  0  0  0  0  0  0  0  0  0
    0.5066   -0.4352    0.0000 O   0  0  0  0  0  0  0  0  0  0  0  0
    1.9355   -1.2601    0.0000 C   0  0  0  0  0  0  0  0  0  0  0  0
    2.6500   -1.6726    0.0000 C   0  0  0  0  0  0  0  0  0  0  0  0
    3.3645   -1.2601    0.0000 C   0  0  0  0  0  0  0  0  0  0  0  0
   -2.3514   -2.9102    0.0000 O   0  0  0  0  0  0  0  0  0  0  0  0
  2  1  1  0  0  0  0
  3  1  2  0  0  0  0
  1  7  1  0  0  0  0
  4  2  2  0  0  0  0
  5  3  1  0  0  0  0
  6  4  1  0  0  0  0
  6  5  2  0  0  0  0
  6 13  1  0  0  0  0
  7  8  1  0  0  0  0
  7  9  2  0  0  0  0
  8 10  1  0  0  0  0
 10 11  1  0  0  0  0
 11 12  1  0  0  0  0
M  END
> <ID>
CHEBI:32063

> <NAME>
propylparaben

> <DEFINITION>
The benzoate ester that is the propyl ester of 4-hydroxybenzoic acid.   Preservative typically found in many water-based cosmetics, such as creams, lotions, shampoos and bath products. Also used as a food additive.

> <STAR>
3

> <SYNONYM>
Propyl parahydroxybenzoate; propyl paraben; Propyl p-hydroxybenzoate; p-Oxybenzoesaeurepropylester; p-Hydroxypropyl benzoate; p-Hydroxybenzoic propyl ester; p-Hydroxybenzoic acid propyl ester; n-propyl paraben; n-Propyl p-hydroxybenzoate; n-Propyl 4-hydroxybenzoate; 4-Hydroxybenzoic acid, propyl ester; 4-Hydroxybenzoic acid propyl ester

> <IUPAC_NAME>
propyl 4-hydroxybenzoate

> <FORMULA>
C10H12O3

> <MASS>
180.20050

> <MONOISOTOPIC_MASS>
180.07864

> <CHARGE>
0

> <SMILES>
CCCOC(=O)c1ccc(O)cc1

> <INCHI>
InChI=1S/C10H12O3/c1-2-7-13-10(12)8-3-5-9(11)6-4-8/h3-6,11H,2,7H2,1H3

> <INCHIKEY>
QELSKZZBTMNZEB-UHFFFAOYSA-N

> <CAS_REGISTRY_NUMBER>
94-13-3

> <REAXYS_REGISTRY_NUMBER>
1103245

> <HMDB_ACCESSION>
HMDB0032574

> <KEGG_DRUG_ACCESSION>
D01422

> <WIKIPEDIA_ACCESSION>
Propylparaben

> <PUBMED_CITATION>
21492176; 21549034; 21608130; 21645663; 21705745; 21886901; 22165009; 22177019; 22220814; 22237600; 22249112; 22305363; 22337803

$$$$
proscillaridin
  CDK     0222172008

 38 43  0  0  0  0  0  0  0  0999 V2000
   -3.0946   -4.1952    0.0000 C   0  0  0  0  0  0  0  0  0  0  0  0
   -2.2825   -4.0500    0.0000 C   0  0  2  0  0  0  0  0  0  0  0  0
   -2.0022   -3.2741    0.0000 O   0  0  0  0  0  0  0  0  0  0  0  0
   -1.1901   -3.1289    0.0000 C   0  0  1  0  0  0  0  0  0  0  0  0
   -0.9098   -2.3529    0.0000 O   0  0  0  0  0  0  0  0  0  0  0  0
   -0.0976   -2.2077    0.0000 C   0  0  1  0  0  0  0  0  0  0  0  0
    0.1827   -1.4318    0.0000 C   0  0  0  0  0  0  0  0  0  0  0  0
    0.9948   -1.2866    0.0000 C   0  0  0  0  0  0  0  0  0  0  0  0
    1.5266   -1.9173    0.0000 C   0  0  2  0  0  0  0  0  0  0  0  0
    1.8069   -1.1414    0.0000 C   0  0  0  0  0  0  0  0  0  0  0  0
    2.3387   -1.7721    0.0000 C   0  0  1  0  0  0  0  0  0  0  0  0
    2.6190   -0.9961    0.0000 C   0  0  0  0  0  0  0  0  0  0  0  0
    3.4311   -0.8509    0.0000 C   0  0  0  0  0  0  0  0  0  0  0  0
    3.9629   -1.4816    0.0000 C   0  0  2  0  0  0  0  0  0  0  0  0
    4.3228   -0.7393    0.0000 C   0  0  0  0  0  0  0  0  0  0  0  0
    4.7875   -1.5084    0.0000 C   0  0  2  0  0  0  0  0  0  0  0  0
    5.0168   -2.3009    0.0000 C   0  0  0  0  0  0  0  0  0  0  0  0
    4.3340   -2.7639    0.0000 C   0  0  0  0  0  0  0  0  0  0  0  0
    3.6826   -2.2576    0.0000 C   0  0  1  0  0  0  0  0  0  0  0  0
    3.4850   -3.0585    0.0000 O   0  0  0  0  0  0  0  0  0  0  0  0
    2.8705   -2.4028    0.0000 C   0  0  2  0  0  0  0  0  0  0  0  0
    2.5902   -3.1787    0.0000 C   0  0  0  0  0  0  0  0  0  0  0  0
    1.7781   -3.3239    0.0000 C   0  0  0  0  0  0  0  0  0  0  0  0
    1.2463   -2.6932    0.0000 C   0  0  0  0  0  0  0  0  0  0  0  0
    0.4342   -2.8384    0.0000 C   0  0  0  0  0  0  0  0  0  0  0  0
    5.2939   -0.8571    0.0000 C   0  0  0  0  0  0  0  0  0  0  0  0
    4.9830   -0.0929    0.0000 C   0  0  0  0  0  0  0  0  0  0  0  0
    5.4893    0.5584    0.0000 O   0  0  0  0  0  0  0  0  0  0  0  0
    6.3066    0.4455    0.0000 C   0  0  0  0  0  0  0  0  0  0  0  0
    6.8129    1.0969    0.0000 O   0  0  0  0  0  0  0  0  0  0  0  0
    6.6175   -0.3186    0.0000 C   0  0  0  0  0  0  0  0  0  0  0  0
    6.1111   -0.9700    0.0000 C   0  0  0  0  0  0  0  0  0  0  0  0
   -0.6582   -3.7596    0.0000 C   0  0  2  0  0  0  0  0  0  0  0  0
    0.1539   -3.6143    0.0000 O   0  0  0  0  0  0  0  0  0  0  0  0
   -0.9385   -4.5355    0.0000 C   0  0  2  0  0  0  0  0  0  0  0  0
   -0.4067   -5.1662    0.0000 O   0  0  0  0  0  0  0  0  0  0  0  0
   -1.7507   -4.6807    0.0000 C   0  0  1  0  0  0  0  0  0  0  0  0
   -2.0310   -5.4566    0.0000 O   0  0  0  0  0  0  0  0  0  0  0  0
  2  1  1  6  0  0  0 
  2  3  1  0  0  0  0 
  3  4  1  0  0  0  0 
  4  5  1  1  0  0  0 
  6  5  1  1  0  0  0 
  6  7  1  0  0  0  0 
  7  8  1  0  0  0  0 
  8  9  1  0  0  0  0 
  9 10  1  1  0  0  0 
  9 11  1  0  0  0  0 
 11 12  1  1  0  0  0 
 12 13  1  0  0  0  0 
 13 14  1  0  0  0  0 
 14 15  1  1  0  0  0 
 14 16  1  0  0  0  0 
 16 17  1  0  0  0  0 
 17 18  1  0  0  0  0 
 18 19  1  0  0  0  0 
 14 19  1  0  0  0  0 
 19 20  1  1  0  0  0 
 19 21  1  0  0  0  0 
 11 21  1  0  0  0  0 
 21 22  1  6  0  0  0 
 22 23  1  0  0  0  0 
 23 24  1  0  0  0  0 
  9 24  1  0  0  0  0 
 24 25  2  0  0  0  0 
  6 25  1  0  0  0  0 
 16 26  1  1  0  0  0 
 26 27  2  0  0  0  0 
 27 28  1  0  0  0  0 
 28 29  1  0  0  0  0 
 29 30  2  0  0  0  0 
 29 31  1  0  0  0  0 
 31 32  2  0  0  0  0 
 26 32  1  0  0  0  0 
  4 33  1  0  0  0  0 
 33 34  1  6  0  0  0 
 33 35  1  0  0  0  0 
 35 36  1  6  0  0  0 
 35 37  1  0  0  0  0 
  2 37  1  0  0  0  0 
 37 38  1  1  0  0  0 
M  END
> <ID>
CHEBI:32065

> <NAME>
Proscillaridin

> <STAR>
2

> <SYNONYM>
scillacrist; proscillaridin A; Proscillaridin; procardin; desglucotransvaaline; cardiovite; caradrin

> <FORMULA>
C30H42O8; C30H42O8

> <MASS>
530.651

> <MONOISOTOPIC_MASS>
530.28797

> <CHARGE>
0

> <SMILES>
C[C@@H]1O[C@@H](O[C@H]2CC[C@]3(C)[C@H]4CC[C@]5(C)[C@H](CC[C@]5(O)[C@@H]4CCC3=C2)C6=COC(=O)C=C6)[C@H](O)[C@H](O)[C@H]1O

> <INCHI>
InChI=1S/C30H42O8/c1-16-24(32)25(33)26(34)27(37-16)38-19-8-11-28(2)18(14-19)5-6-22-21(28)9-12-29(3)20(10-13-30(22,29)35)17-4-7-23(31)36-15-17/h4,7,14-16,19-22,24-27,32-35H,5-6,8-13H2,1-3H3/t16-,19-,20+,21-,22+,24-,25+,26+,27-,28-,29+,30-/m0/s1

> <INCHIKEY>
MYEJFUXQJGHEQK-ALRJYLEOSA-N

> <CAS_REGISTRY_NUMBER>
466-06-8

> <KEGG_DRUG_ACCESSION>
D01379

$$$$



19 20  0  0  0  0  0  0  0  0999 V2000
   28.6970  -17.0550    0.0000 C   0  0  0  0  0  0  0  0  0  0  0  0
   28.6970  -15.6543    0.0000 C   0  0  0  0  0  0  0  0  0  0  0  0
   29.9129  -14.9540    0.0000 N   0  0  0  0  0  0  0  0  0  0  0  0
   31.1217  -15.6543    0.0000 C   0  0  0  0  0  0  0  0  0  0  0  0
   31.1217  -17.0550    0.0000 C   0  0  0  0  0  0  0  0  0  0  0  0
   29.9129  -17.7553    0.0000 N   0  0  0  0  0  0  0  0  0  0  0  0
   27.4845  -14.9533    0.0000 O   0  0  0  0  0  0  0  0  0  0  0  0
   27.4845  -17.7560    0.0000 N   0  0  0  0  0  0  0  0  0  0  0  0
   26.2711  -17.0562    0.0000 S   0  0  3  0  0  0  0  0  0  0  0  0
   25.0584  -17.7572    0.0000 C   0  0  0  0  0  0  0  0  0  0  0  0
   25.0642  -19.1520    0.0000 C   0  0  0  0  0  0  0  0  0  0  0  0
   23.8515  -19.8530    0.0000 C   0  0  0  0  0  0  0  0  0  0  0  0
   22.6381  -19.1534    0.0000 C   0  0  0  0  0  0  0  0  0  0  0  0
   22.6374  -17.7527    0.0000 C   0  0  0  0  0  0  0  0  0  0  0  0
   23.8499  -17.0517    0.0000 C   0  0  0  0  0  0  0  0  0  0  0  0
   21.4256  -19.8544    0.0000 N   0  0  0  0  0  0  0  0  0  0  0  0
   27.4851  -13.5527    0.0000 C   0  0  0  0  0  0  0  0  0  0  0  0
   25.2733  -16.0716    0.0000 O   0  0  0  0  0  0  0  0  0  0  0  0
   27.2610  -16.0716    0.0000 O   0  0  0  0  0  0  0  0  0  0  0  0
  3  4  2  0     0  0
  9 10  1  0     0  0
  4  5  1  0     0  0
  5  6  2  0     0  0
  6  1  1  0     0  0
  2  7  1  0     0  0
 10 11  2  0     0  0
 11 12  1  0     0  0
 12 13  2  0     0  0
 13 14  1  0     0  0
 14 15  2  0     0  0
 15 10  1  0     0  0
  1  2  2  0     0  0
 13 16  1  0     0  0
  1  8  1  0     0  0
  7 17  1  0     0  0
  2  3  1  0     0  0
  9 18  2  0     0  0
  8  9  1  0     0  0
  9 19  2  0     0  0
M  END
> <ID>
CHEBI:32162

> <NAME>
sulfamethopyrazine

> <STAR>
2

> <SYNONYM>
sulphamethopyrazine; sulfapyrazinemethoxyne; sulfapyrazinemethoxyine; sulfapyrazinemethoxine; sulfametopyrazine; sulfamethoxypyrazine; Sulfamethopyrazine; sulfamethopyrazine; Sulfalene

> <FORMULA>
C11H12N4O3S

> <MASS>
280.304

> <MONOISOTOPIC_MASS>
280.06301

> <CHARGE>
0

> <SMILES>
COc1nccnc1NS(=O)(=O)c1ccc(N)cc1

> <INCHI>
InChI=1S/C11H12N4O3S/c1-18-11-10(13-6-7-14-11)15-19(16,17)9-4-2-8(12)3-5-9/h2-7H,12H2,1H3,(H,13,15)

> <INCHIKEY>
KXRZBTAEDBELFD-UHFFFAOYSA-N

> <CAS_REGISTRY_NUMBER>
152-47-6

> <HMDB_ACCESSION>
HMDB0014802

> <KEGG_COMPOUND_ACCESSION>
C12616

> <KEGG_DRUG_ACCESSION>
D01216

$$$$



19 20  0  0  0  0  0  0  0  0999 V2000
   36.9421  -17.5248    0.0000 C   0  0  0  0  0  0  0  0  0  0  0  0
   36.9421  -18.9242    0.0000 C   0  0  0  0  0  0  0  0  0  0  0  0
   35.7272  -19.6240    0.0000 C   0  0  0  0  0  0  0  0  0  0  0  0
   34.5194  -18.9242    0.0000 C   0  0  0  0  0  0  0  0  0  0  0  0
   34.5194  -17.5248    0.0000 C   0  0  0  0  0  0  0  0  0  0  0  0
   35.7272  -16.8250    0.0000 C   0  0  0  0  0  0  0  0  0  0  0  0
   38.1538  -19.6246    0.0000 N   0  0  0  0  0  0  0  0  0  0  0  0
   33.3069  -16.8259    0.0000 S   0  0  3  0  0  0  0  0  0  0  0  0
   32.0956  -17.5266    0.0000 N   0  0  0  0  0  0  0  0  0  0  0  0
   30.8831  -16.8278    0.0000 C   0  0  0  0  0  0  0  0  0  0  0  0
   29.6751  -17.5287    0.0000 C   0  0  0  0  0  0  0  0  0  0  0  0
   28.4628  -16.8298    0.0000 C   0  0  0  0  0  0  0  0  0  0  0  0
   28.4616  -15.4303    0.0000 N   0  0  0  0  0  0  0  0  0  0  0  0
   29.6731  -14.7298    0.0000 C   0  0  0  0  0  0  0  0  0  0  0  0
   30.8856  -15.4286    0.0000 N   0  0  0  0  0  0  0  0  0  0  0  0
   27.2513  -17.5305    0.0000 O   0  0  0  0  0  0  0  0  0  0  0  0
   32.3197  -15.8285    0.0000 O   0  0  0  0  0  0  0  0  0  0  0  0
   34.3057  -15.8285    0.0000 O   0  0  0  0  0  0  0  0  0  0  0  0
   26.0388  -16.8317    0.0000 C   0  0  0  0  0  0  0  0  0  0  0  0
  3  4  2  0     0  0
  9 10  1  0     0  0
  4  5  1  0     0  0
  5  6  2  0     0  0
  6  1  1  0     0  0
  2  7  1  0     0  0
 10 11  2  0     0  0
 11 12  1  0     0  0
 12 13  2  0     0  0
 13 14  1  0     0  0
 14 15  2  0     0  0
 15 10  1  0     0  0
  1  2  2  0     0  0
 12 16  1  0     0  0
  5  8  1  0     0  0
  8 17  2  0     0  0
  2  3  1  0     0  0
  8 18  2  0     0  0
  8  9  1  0     0  0
 16 19  1  0     0  0
M  END
> <ID>
CHEBI:32164

> <NAME>
Sulfamonomethoxine

> <STAR>
2

> <SYNONYM>
Sulfamonomethoxine; sulfamonomethoxin; daimeton

> <FORMULA>
C11H12N4O3S; C11H12N4O3S

> <MASS>
280.304

> <MONOISOTOPIC_MASS>
280.06301

> <CHARGE>
0

> <SMILES>
COc1cc(NS(=O)(=O)c2ccc(N)cc2)ncn1

> <INCHI>
InChI=1S/C11H12N4O3S/c1-18-11-6-10(13-7-14-11)15-19(16,17)9-4-2-8(12)3-5-9/h2-7H,12H2,1H3,(H,13,14,15)

> <INCHIKEY>
WMPXPUYPYQKQCX-UHFFFAOYSA-N

> <CAS_REGISTRY_NUMBER>
1220-83-3

> <KEGG_COMPOUND_ACCESSION>
C12540

> <KEGG_DRUG_ACCESSION>
D01141

> <LINCS_ACCESSION>
LSM-5320

$$$$

Marvin  04091314412D          

 32 34  0  0  0  0            999 V2000
   10.2895   -9.1229    0.0000 C   0  0  0  0  0  0  0  0  0  0  0  0
    9.6297   -9.6067    0.0000 N   0  0  0  0  0  0  0  0  0  0  0  0
   10.0365   -8.3418    0.0000 C   0  0  0  0  0  0  0  0  0  0  0  0
    8.9644   -9.1229    0.0000 N   0  0  0  0  0  0  0  0  0  0  0  0
    9.2174   -8.3418    0.0000 C   0  0  0  0  0  0  0  0  0  0  0  0
    9.6297  -10.4317    0.0000 C   0  0  0  0  0  0  0  0  0  0  0  0
   10.3389  -10.8439    0.0000 C   0  0  0  0  0  0  0  0  0  0  0  0
    8.9148  -10.8439    0.0000 C   0  0  0  0  0  0  0  0  0  0  0  0
   10.3389  -11.6689    0.0000 C   0  0  0  0  0  0  0  0  0  0  0  0
    8.9148  -11.6689    0.0000 C   0  0  0  0  0  0  0  0  0  0  0  0
    9.6296  -12.0814    0.0000 C   0  0  0  0  0  0  0  0  0  0  0  0
    8.1780   -9.3813    0.0000 C   0  0  0  0  0  0  0  0  0  0  0  0
    8.0076  -10.1841    0.0000 C   0  0  0  0  0  0  0  0  0  0  0  0
    7.5620   -8.8259    0.0000 C   0  0  0  0  0  0  0  0  0  0  0  0
    7.2211  -10.4425    0.0000 C   0  0  0  0  0  0  0  0  0  0  0  0
    6.7813   -9.0844    0.0000 C   0  0  0  0  0  0  0  0  0  0  0  0
    6.6110   -9.8871    0.0000 C   0  0  0  0  0  0  0  0  0  0  0  0
    8.7333   -7.6768    0.0000 O   0  0  0  0  0  0  0  0  0  0  0  0
   11.0757   -9.3814    0.0000 O   0  0  0  0  0  0  0  0  0  0  0  0
   10.0424   -7.5174    0.0000 C   0  0  0  0  0  0  0  0  0  0  0  0
   10.7617   -7.1128    0.0000 C   0  0  0  0  0  0  0  0  0  0  0  0
   10.7639   -6.2849    0.0000 C   0  0  0  0  0  0  0  0  0  0  0  0
   11.4831   -5.8805    0.0000 C   0  0  0  0  0  0  0  0  0  0  0  0
   10.7491   -7.9319    0.0000 C   0  0  0  0  0  0  0  0  0  0  0  0
   11.4615   -8.3485    0.0000 O   0  0  0  0  0  0  0  0  0  0  0  0
   12.1780   -7.9400    0.0000 C   0  0  0  0  0  0  0  0  0  0  0  0
   12.8904   -8.3566    0.0000 C   0  0  0  0  0  0  0  0  0  0  0  0
   13.6068   -7.9481    0.0000 C   0  0  0  0  0  0  0  0  0  0  0  0
   12.1821   -7.1146    0.0000 O   0  0  0  0  0  0  0  0  0  0  0  0
   14.3193   -8.3647    0.0000 C   0  0  0  0  0  0  0  0  0  0  0  0
   14.3123   -9.1851    0.0000 O   0  0  0  0  0  0  0  0  0  0  0  0
   15.0359   -7.9560    0.0000 O   0  0  0  0  0  0  0  0  0  0  0  0
  2  1  1  0  0  0  0
  3  1  1  0  0  0  0
  4  2  1  0  0  0  0
  5  3  1  0  0  0  0
  5  4  1  0  0  0  0
  7  6  1  0  0  0  0
  8  6  2  0  0  0  0
  9  7  2  0  0  0  0
 10  8  1  0  0  0  0
 11  9  1  0  0  0  0
 11 10  2  0  0  0  0
  2  6  1  0  0  0  0
 13 12  1  0  0  0  0
 14 12  2  0  0  0  0
 15 13  2  0  0  0  0
 16 14  1  0  0  0  0
 17 15  1  0  0  0  0
 17 16  2  0  0  0  0
  4 12  1  0  0  0  0
  5 18  2  0  0  0  0
  1 19  2  0  0  0  0
  3 20  1  0  0  0  0
 20 21  1  0  0  0  0
 21 22  1  0  0  0  0
 22 23  1  0  0  0  0
  3 24  1  0  0  0  0
 24 25  1  0  0  0  0
 25 26  1  0  0  0  0
 26 27  1  0  0  0  0
 27 28  1  0  0  0  0
 26 29  2  0  0  0  0
 28 30  1  0  0  0  0
 30 31  2  0  0  0  0
 30 32  1  0  0  0  0
M  END
> <ID>
CHEBI:32173

> <NAME>
suxibuzone

> <DEFINITION>
A pyrazolidine that is phenylbutazone which is substituted by a 3-carboxypropanoylmethyl group at the 4-position. Suxibuzone is a prodrug for phenylbutazone and is commonly used as an anti-inflammatory drug in horses.

> <STAR>
3

> <SYNONYM>
4-Hydroxymethylbutazolidine hemisuccinate; 4-Butyl-4-hydroxymethyl-1,2-diphenyl-3,5-pyrazolidinedione hydrogen succinate

> <IUPAC_NAME>
4-[(4-butyl-3,5-dioxo-1,2-diphenylpyrazolidin-4-yl)methoxy]-4-oxobutanoic acid

> <INN>
suxibuzonum; suxibuzone; suxibuzone; suxibuzona

> <FORMULA>
C24H26N2O6

> <MASS>
438.47300

> <MONOISOTOPIC_MASS>
438.17909

> <CHARGE>
0

> <SMILES>
CCCCC1(COC(=O)CCC(O)=O)C(=O)N(N(C1=O)c1ccccc1)c1ccccc1

> <INCHI>
InChI=1S/C24H26N2O6/c1-2-3-16-24(17-32-21(29)15-14-20(27)28)22(30)25(18-10-6-4-7-11-18)26(23(24)31)19-12-8-5-9-13-19/h4-13H,2-3,14-17H2,1H3,(H,27,28)

> <INCHIKEY>
ONWXNHPOAGOMTG-UHFFFAOYSA-N

> <BEILSTEIN_REGISTRY_NUMBER>
904563

> <CAS_REGISTRY_NUMBER>
27470-51-5

> <REAXYS_REGISTRY_NUMBER>
904563

> <CHEMIDPLUS>
27470-51-5

> <HMDB_ACCESSION>
HMDB0042019

> <KEGG_DRUG_ACCESSION>
D01289

> <LINCS_ACCESSION>
LSM-5851

> <WIKIPEDIA_ACCESSION>
Suxibuzone

> <AGRICOLA_CITATION>
IND44395503

> <PUBMED_CITATION>
10505957; 19927590; 20037965; 3425858; 6345427; 7097505; 7452452; 8230399

$$$$
ChEBI
  Marvin  02231012382D          

 12 11  0  0  0  0            999 V2000
   12.5341   -3.4897    0.0000 C   0  0  0  0  0  0  0  0  0  0  0  0
   11.8250   -3.9114    0.0000 C   0  0  0  0  0  0  0  0  0  0  0  0
   10.3877   -3.9114    0.0000 C   0  0  0  0  0  0  0  0  0  0  0  0
    9.6786   -3.4897    0.0000 C   0  0  0  0  0  0  0  0  0  0  0  0
    8.9504   -3.9114    0.0000 C   0  0  0  0  0  0  0  0  0  0  0  0
    8.2413   -3.4897    0.0000 C   0  0  0  0  0  0  0  0  0  0  0  0
    7.5130   -3.9114    0.0000 C   0  0  0  0  0  0  0  0  0  0  0  0
    6.7847   -3.4897    0.0000 C   0  0  0  0  0  0  0  0  0  0  0  0
   10.3877   -4.7354    0.0000 O   0  0  0  0  0  0  0  0  0  0  0  0
   13.2512   -3.8976    0.0000 O   0  0  0  0  0  0  0  0  0  0  0  0
   11.1159   -3.4897    0.0000 C   0  0  0  0  0  0  0  0  0  0  0  0
   11.1159   -2.6647    0.0000 H   0  0  0  0  0  0  0  0  0  0  0  0
  2  1  1  0  0  0  0
 11  2  2  0  0  0  0
  3 11  1  0  0  0  0
  4  3  1  0  0  0  0
  9  3  1  0  0  0  0
  5  4  1  0  0  0  0
  6  5  1  0  0  0  0
  7  6  1  0  0  0  0
  8  7  1  0  0  0  0
 10  1  2  0  0  0  0
 11 12  1  4  0  0  0
M  END
> <ID>
CHEBI:32585

> <NAME>
4-hydroxynon-2-enal

> <DEFINITION>
An enal consisting of non-2-ene having an oxo group at the 1-position and a hydroxy group at the 4-position.

> <STAR>
3

> <SYNONYM>
HNE; 4-Hydroxynonenal; 4-hydroxynon-2-enal; 4-Hydroxy-2-nonenal; 4-Hydroxy-2,3-nonenal; 4-HNE

> <IUPAC_NAME>
4-hydroxynon-2-enal

> <FORMULA>
C9H16O2

> <MASS>
156.22210

> <MONOISOTOPIC_MASS>
156.11503

> <CHARGE>
0

> <SMILES>
[H]C(=CC=O)C(O)CCCCC

> <INCHI>
InChI=1S/C9H16O2/c1-2-3-4-6-9(11)7-5-8-10/h5,7-9,11H,2-4,6H2,1H3

> <INCHIKEY>
JVJFIQYAHPMBBX-UHFFFAOYSA-N

> <CAS_REGISTRY_NUMBER>
29343-52-0

> <CHEMIDPLUS>
29343-52-0

> <LINCS_ACCESSION>
LSM-4344

> <WIKIPEDIA_ACCESSION>
4-Hydroxynonenal

$$$$
ChEBI
  Marvin  05091117142D          

 27 31  0  0  1  0            999 V2000
   12.0097   -3.5800    0.0000 C   0  0  1  0  0  0  0  0  0  0  0  0
   11.2950   -3.1677    0.0000 C   0  0  2  0  0  0  0  0  0  0  0  0
   11.2950   -2.3523    0.0000 C   0  0  0  0  0  0  0  0  0  0  0  0
   12.0097   -1.9400    0.0000 C   0  0  0  0  0  0  0  0  0  0  0  0
   14.8497   -1.9400    0.0000 C   0  0  0  0  0  0  0  0  0  0  0  0
   15.5643   -2.3523    0.0000 C   0  0  0  0  0  0  0  0  0  0  0  0
   15.5643   -3.1677    0.0000 C   0  0  1  0  0  0  0  0  0  0  0  0
   15.3994   -3.9922    0.0000 C   0  0  0  0  0  0  0  0  0  0  0  0
   14.3000   -3.9922    0.0000 C   0  0  0  0  0  0  0  0  0  0  0  0
   12.7151   -2.3523    0.0000 C   0  0  2  0  0  0  0  0  0  0  0  0
   14.8497   -3.5800    0.0000 C   0  0  0  0  0  0  0  0  0  0  0  0
   12.7151   -3.1677    0.0000 C   0  0  2  0  0  0  0  0  0  0  0  0
   14.1351   -2.3523    0.0000 C   0  0  1  0  0  0  0  0  0  0  0  0
   13.4297   -3.5800    0.0000 C   0  0  1  0  0  0  0  0  0  0  0  0
   14.1351   -3.1677    0.0000 C   0  0  2  0  0  0  0  0  0  0  0  0
   12.7151   -4.0820    0.0000 H   0  0  0  0  0  0  0  0  0  0  0  0
   10.5627   -3.5476    0.0000 O   0  0  0  0  0  0  0  0  0  0  0  0
   12.0122   -4.2764    0.0000 C   0  0  0  0  0  0  0  0  0  0  0  0
   13.4320   -4.4208    0.0000 C   0  0  0  0  0  0  0  0  0  0  0  0
   14.1614   -4.8392    0.0000 O   0  0  0  0  0  0  0  0  0  0  0  0
   12.7049   -4.8433    0.0000 O   0  0  0  0  0  0  0  0  0  0  0  0
   15.8962   -4.5966    0.0000 C   0  0  0  0  0  0  0  0  0  0  0  0
   14.1424   -1.5696    0.0000 H   0  0  0  0  0  0  0  0  0  0  0  0
   12.7170   -1.5455    0.0000 O   0  0  0  0  0  0  0  0  0  0  0  0
   11.7880   -2.8749    0.0000 C   0  0  0  0  0  0  0  0  0  0  0  0
   12.3646   -2.8269    0.0000 O   0  0  0  0  0  0  0  0  0  0  0  0
   16.3612   -3.3812    0.0000 H   0  0  0  0  0  0  0  0  0  0  0  0
 13 10  1  0  0  0  0
 12 10  1  0  0  0  0
  1 12  1  0  0  0  0
 14 12  1  0  0  0  0
 12 16  1  1  0  0  0
  3  4  1  0  0  0  0
  2  1  1  0  0  0  0
  2  3  1  0  0  0  0
  5 13  1  0  0  0  0
 15 13  1  0  0  0  0
 15 14  1  0  0  0  0
 15 11  1  6  0  0  0
 15  9  1  0  0  0  0
  6  5  1  0  0  0  0
  7  6  1  0  0  0  0
  7 11  1  6  0  0  0
  7  8  1  0  0  0  0
  8  9  1  0  0  0  0
  2 17  1  1  0  0  0
  1 18  1  0  0  0  0
 20 19  2  0  0  0  0
 21 19  1  0  0  0  0
 14 19  1  1  0  0  0
 22  8  2  0  0  0  0
 13 23  1  1  0  0  0
 10 24  1  6  0  0  0
  1 25  1  6  0  0  0
 26 25  2  0  0  0  0
 25 24  1  0  0  0  0
  4 10  1  0  0  0  0
  7 27  1  6  0  0  0
M  END
> <ID>
CHEBI:32902

> <NAME>
gibberellin A4

> <DEFINITION>
A C19-gibberellin, initially identified in Gibberella fujikuroi and differing from gibberellin A1 by the substitution of the OH at C-7 (gibbane numbering) by H.

> <STAR>
3

> <SECONDARY_ID>
CHEBI:29597; CHEBI:42806; CHEBI:24244

> <SYNONYM>
Gibberellin A4; GIBBERELLIN A4; gibberellin 4; GA4; 2beta,4a-dihydroxy-1-methyl-8-methylene-4aalpha,4bbeta-gibbane-1alpha,10beta-dicarboxylic acid, 1,4a-lactone

> <IUPAC_NAME>
2beta-hydroxy-1beta-methyl-8-methylidene-13-oxo-4a,1alpha-epoxymethano-4aalpha,4bbeta-gibbane-10beta-carboxylic acid; (1S,2S,4aR,4bR,7R,9aR,10S,10aR)-2-hydroxy-1-methyl-8-methylidene-13-oxododecahydro-4a,1-(epoxymethano)-7,9a-methanobenzo[a]azulene-10-carboxylic acid; (1R,2R,5R,8R,9S,10R,11S,12S)-12-hydroxy-11-methyl-6-methylidene-16-oxo-15-oxapentacyclo[9.3.2.1(5,8).0(1,10).0(2,8)]heptadecane-9-carboxylic acid

> <FORMULA>
C19H24O5

> <MASS>
332.39090

> <MONOISOTOPIC_MASS>
332.16237

> <CHARGE>
0

> <SMILES>
[H][C@]12CC[C@]3([H])[C@](CC1=C)(C2)[C@@H](C(O)=O)[C@]1([H])[C@@]2(C)[C@@H](O)CC[C@@]31OC2=O

> <INCHI>
InChI=1S/C19H24O5/c1-9-7-18-8-10(9)3-4-11(18)19-6-5-12(20)17(2,16(23)24-19)14(19)13(18)15(21)22/h10-14,20H,1,3-8H2,2H3,(H,21,22)/t10-,11-,12+,13-,14-,17-,18+,19-/m1/s1

> <INCHIKEY>
RSQSQJNRHICNNH-NFMPGMCNSA-N

> <BEILSTEIN_REGISTRY_NUMBER>
46820

> <CAS_REGISTRY_NUMBER>
468-44-0

> <REAXYS_REGISTRY_NUMBER>
46820

> <CHEMIDPLUS>
468-44-0

> <DRUGBANK_ACCESSION>
DB07815

> <KEGG_COMPOUND_ACCESSION>
C11864

> <KNAPSACK_ACCESSION>
C00000004

> <LIPID_MAPS_INSTANCE_ACCESSION>
LMPR0104170021

> <METACYC_ACCESSION>
CPD1F-137

> <PDBECHEM_ACCESSION>
GA4

> <PUBMED_CITATION>
24014872; 24192296; 24232845

$$$$

Marvin  01030615382D          

 17 18  0  0  0  0            999 V2000
   -1.4375    0.7000    0.0000 C   0  0  0  0  0  0  0  0  0  0  0  0
   -2.1520    0.2875    0.0000 C   0  0  0  0  0  0  0  0  0  0  0  0
   -1.4375   -0.9500    0.0000 C   0  0  0  0  0  0  0  0  0  0  0  0
   -0.7230   -0.5375    0.0000 C   0  0  0  0  0  0  0  0  0  0  0  0
   -0.7230    0.2875    0.0000 C   0  0  0  0  0  0  0  0  0  0  0  0
    0.7059    0.2875    0.0000 C   0  0  0  0  0  0  0  0  0  0  0  0
    1.4131    0.7123    0.0000 C   0  0  0  0  0  0  0  0  0  0  0  0
    0.7202   -0.5374    0.0000 C   0  0  0  0  0  0  0  0  0  0  0  0
    1.4416   -0.9375    0.0000 C   0  0  0  0  0  0  0  0  0  0  0  0
    2.1346    0.3122    0.0000 C   0  0  0  0  0  0  0  0  0  0  0  0
   -0.5919    1.2834    0.0000 C   0  0  0  0  0  0  0  0  0  0  0  0
   -0.0086    0.7000    0.0000 C   0  0  3  0  0  0  0  0  0  0  0  0
    0.5748    1.2834    0.0000 C   0  0  0  0  0  0  0  0  0  0  0  0
   -2.1520   -0.5375    0.0000 C   0  0  0  0  0  0  0  0  0  0  0  0
   -2.8664   -0.9500    0.0000 O   0  0  0  0  0  0  0  0  0  0  0  0
    2.1489   -0.5127    0.0000 C   0  0  0  0  0  0  0  0  0  0  0  0
    2.8633   -0.9252    0.0000 O   0  0  0  0  0  0  0  0  0  0  0  0
  1  2  2  0  0  0  0
  1  5  1  0  0  0  0
  2 14  1  0  0  0  0
 14  3  2  0  0  0  0
  3  4  1  0  0  0  0
  4  5  2  0  0  0  0
  5 12  1  0  0  0  0
 12  6  1  0  0  0  0
  7  6  2  0  0  0  0
  6  8  1  0  0  0  0
  7 10  1  0  0  0  0
  8  9  2  0  0  0  0
  9 16  1  0  0  0  0
 16 10  2  0  0  0  0
 12 11  1  0  0  0  0
 12 13  1  0  0  0  0
 14 15  1  0  0  0  0
 16 17  1  0  0  0  0
M  END
> <ID>
CHEBI:33216

> <NAME>
bisphenol A

> <DEFINITION>
A bisphenol that is 4,4'-methanediyldiphenol in which the methylene hydrogens are replaced by two methyl groups.

> <STAR>
3

> <SECONDARY_ID>
CHEBI:47094; CHEBI:22900; CHEBI:31295

> <SYNONYM>
Dianin's compound; BPA; bisphenol-A; bisphenol A; Bisphenol A; 4,4'-Isopropylidenediphenol; 4,4'-Bisphenol A; 4,4'-(Propane-2,2-diyl)diphenol; 4,4'-(1-Methylethylidene)bisphenol; 4,4'-(1-Methylethane-1,1-diyl)diphenol; 2,2-Di(4-phenylol)propane; 2,2-Di(4-hydroxyphenyl)propane; 2,2-Bis(p-hydroxyphenyl)propane; 2,2-Bis(4-Hydroxyphenyl)propane; 2,2-Bis(4'-hydroxyphenyl)propane; 2, 2-Bis(4-hydroxyphenyl)propane

> <IUPAC_NAME>
4,4'-(propane-2,2-diyl)diphenol

> <FORMULA>
C15H16O2

> <MASS>
228.28634

> <MONOISOTOPIC_MASS>
228.11503

> <CHARGE>
0

> <SMILES>
CC(C)(c1ccc(O)cc1)c1ccc(O)cc1

> <INCHI>
InChI=1S/C15H16O2/c1-15(2,11-3-7-13(16)8-4-11)12-5-9-14(17)10-6-12/h3-10,16-17H,1-2H3

> <INCHIKEY>
IISBACLAFKSPIT-UHFFFAOYSA-N

> <CAS_REGISTRY_NUMBER>
80-05-7

> <REAXYS_REGISTRY_NUMBER>
1107700

> <CHEMIDPLUS>
80-05-7

> <DRUGBANK_ACCESSION>
DB06973

> <HMDB_ACCESSION>
HMDB0032133

> <KEGG_COMPOUND_ACCESSION>
C13624

> <LINCS_ACCESSION>
LSM-37080

> <NIST_CHEMISTRY_WEBBOOK>
80-05-7

> <WIKIPEDIA_ACCESSION>
Bisphenol_A

> <PUBMED_CITATION>
10593191; 11361040; 12860292; 15936980; 16904728; 24471646; 25042713; 25148994; 25524584; 25569640; 25637671; 25663485

$$$$

Marvin  01040610572D          

 21 22  0  0  0  0            999 V2000
   -2.3750    0.9500    0.0000 C   0  0  0  0  0  0  0  0  0  0  0  0
   -1.6605   -0.2875    0.0000 C   0  0  0  0  0  0  0  0  0  0  0  0
   -1.6605    0.5375    0.0000 C   0  0  0  0  0  0  0  0  0  0  0  0
   -0.2316    0.5375    0.0000 C   0  0  0  0  0  0  0  0  0  0  0  0
    0.4829    0.9500    0.0000 C   0  0  0  0  0  0  0  0  0  0  0  0
   -0.2316   -0.2875    0.0000 C   0  0  0  0  0  0  0  0  0  0  0  0
   -1.3586    1.6645    0.0000 C   0  0  0  0  0  0  0  0  0  0  0  0
   -0.9461    0.9500    0.0000 C   0  0  3  0  0  0  0  0  0  0  0  0
   -0.5336    1.6645    0.0000 C   0  0  0  0  0  0  0  0  0  0  0  0
   -3.0895   -0.2875    0.0000 C   0  0  0  0  0  0  0  0  0  0  0  0
   -3.8039   -0.7000    0.0000 O   0  0  0  0  0  0  0  0  0  0  0  0
    1.1973   -0.2875    0.0000 C   0  0  0  0  0  0  0  0  0  0  0  0
    1.9118   -0.7000    0.0000 O   0  0  0  0  0  0  0  0  0  0  0  0
   -2.3750   -0.7000    0.0000 C   0  0  0  0  0  0  0  0  0  0  0  0
   -2.3750   -1.5250    0.0000 Br  0  0  0  0  0  0  0  0  0  0  0  0
   -3.0895    0.5375    0.0000 C   0  0  0  0  0  0  0  0  0  0  0  0
   -3.8039    0.9500    0.0000 Br  0  0  0  0  0  0  0  0  0  0  0  0
    1.1973    0.5375    0.0000 C   0  0  0  0  0  0  0  0  0  0  0  0
    1.9118    0.9500    0.0000 Br  0  0  0  0  0  0  0  0  0  0  0  0
    0.4829   -0.7000    0.0000 C   0  0  0  0  0  0  0  0  0  0  0  0
    0.4829   -1.5250    0.0000 Br  0  0  0  0  0  0  0  0  0  0  0  0
  1 16  2  0  0  0  0
  1  3  1  0  0  0  0
 16 10  1  0  0  0  0
 10 14  2  0  0  0  0
 14  2  1  0  0  0  0
  2  3  2  0  0  0  0
  3  8  1  0  0  0  0
  8  4  1  0  0  0  0
  5  4  2  0  0  0  0
  4  6  1  0  0  0  0
  5 18  1  0  0  0  0
  6 20  2  0  0  0  0
 20 12  1  0  0  0  0
 12 18  2  0  0  0  0
  8  7  1  0  0  0  0
  8  9  1  0  0  0  0
 10 11  1  0  0  0  0
 12 13  1  0  0  0  0
 14 15  1  0  0  0  0
 16 17  1  0  0  0  0
 18 19  1  0  0  0  0
 20 21  1  0  0  0  0
M  END
> <ID>
CHEBI:33217

> <NAME>
3,3',5,5'-tetrabromobisphenol A

> <DEFINITION>
A bromobisphenol that is 4,4'-methanediyldiphenol in which the methylene hydrogens are replaced by two methyl groups and the phenyl rings are substituted by bromo groups at positions 2, 2', 6 and 6'. It is a brominated flame retardant.

> <STAR>
3

> <SECONDARY_ID>
CHEBI:32196; CHEBI:19864

> <SYNONYM>
tetrabromobisphenol-A; Tetrabromobisphenol A; 4,4'-Isopropylidenebis(2,6-dibromophenol); 4,4'-(2,2-propanediyl) bis[2,6-dibromo]phenol; 4,4'-(1-Methylethylidene)bis(2,6-dibromophenol); 3,3',5,5'-Tetrabromobisphenol A; 2,2-Bis(3,5-dibromo-4-hydroxyphenyl)propane; 2,2',6,6'-Tetrabromobisphenol A

> <IUPAC_NAME>
4,4'-(propane-2,2-diyl)bis(2,6-dibromophenol)

> <FORMULA>
C15H12Br4O2

> <MASS>
543.87058

> <MONOISOTOPIC_MASS>
539.75708

> <CHARGE>
0

> <SMILES>
CC(C)(c1cc(Br)c(O)c(Br)c1)c1cc(Br)c(O)c(Br)c1

> <INCHI>
InChI=1S/C15H12Br4O2/c1-15(2,7-3-9(16)13(20)10(17)4-7)8-5-11(18)14(21)12(19)6-8/h3-6,20-21H,1-2H3

> <INCHIKEY>
VEORPZCZECFIRK-UHFFFAOYSA-N

> <CAS_REGISTRY_NUMBER>
79-94-7

> <REAXYS_REGISTRY_NUMBER>
1889048

> <CHEMIDPLUS>
79-94-7

> <KEGG_COMPOUND_ACCESSION>
C13620

> <WIKIPEDIA_ACCESSION>
Tetrabromobisphenol_A

> <PUBMED_CITATION>
17784851; 24060738; 24709479; 25042713

$$$$



21 25  0  0  0  0  0  0  0  0999 V2000
   23.3800  -18.1300    0.0000 C   0  0  0  0  0  0  0  0  0  0  0  0
   24.5700  -17.4300    0.0000 C   0  0  0  0  0  0  0  0  0  0  0  0
   22.1900  -17.4300    0.0000 C   0  0  0  0  0  0  0  0  0  0  0  0
   23.3800  -19.5300    0.0000 C   0  0  0  0  0  0  0  0  0  0  0  0
   24.5700  -16.0300    0.0000 C   0  0  0  0  0  0  0  0  0  0  0  0
   25.8300  -18.1300    0.0000 C   0  0  0  0  0  0  0  0  0  0  0  0
   20.9300  -18.1300    0.0000 C   0  0  0  0  0  0  0  0  0  0  0  0
   22.1900  -16.0300    0.0000 C   0  0  0  0  0  0  0  0  0  0  0  0
   22.1900  -20.2300    0.0000 C   0  0  0  0  0  0  0  0  0  0  0  0
   24.5700  -20.2300    0.0000 C   0  0  0  0  0  0  0  0  0  0  0  0
   23.3800  -15.3300    0.0000 C   0  0  0  0  0  0  0  0  0  0  0  0
   25.8300  -15.3300    0.0000 C   0  0  0  0  0  0  0  0  0  0  0  0
   25.8300  -19.5300    0.0000 C   0  0  0  0  0  0  0  0  0  0  0  0
   27.0200  -17.4300    0.0000 C   0  0  0  0  0  0  0  0  0  0  0  0
   20.9300  -19.5300    0.0000 C   0  0  0  0  0  0  0  0  0  0  0  0
   19.7400  -17.4300    0.0000 C   0  0  0  0  0  0  0  0  0  0  0  0
   27.0200  -16.0300    0.0000 C   0  0  0  0  0  0  0  0  0  0  0  0
   19.7400  -20.2300    0.0000 C   0  0  0  0  0  0  0  0  0  0  0  0
   18.5500  -18.1300    0.0000 C   0  0  0  0  0  0  0  0  0  0  0  0
   18.5500  -19.5300    0.0000 C   0  0  0  0  0  0  0  0  0  0  0  0
   28.2100  -18.1300    0.0000 O   0  0  0  0  0  0  0  0  0  0  0  0
  1  2  2  0     0  0
  1  3  1  0     0  0
  1  4  1  0     0  0
  2  5  1  0     0  0
  2  6  1  0     0  0
  3  7  2  0     0  0
  3  8  1  0     0  0
  4  9  1  0     0  0
  4 10  2  0     0  0
  5 11  1  0     0  0
  5 12  2  0     0  0
  6 13  2  0     0  0
  6 14  1  0     0  0
  7 15  1  0     0  0
  7 16  1  0     0  0
 12 17  1  0     0  0
 15 18  1  0     0  0
 16 19  2  0     0  0
 18 20  2  0     0  0
  8 11  2  0     0  0
  9 15  2  0     0  0
 10 13  1  0     0  0
 14 17  2  0     0  0
 19 20  1  0     0  0
 14 21  1  0     0  0
M  END
> <ID>
CHEBI:34337

> <NAME>
3-Hydroxybenzo[a]pyrene

> <STAR>
2

> <SYNONYM>
3-Hydroxybenzo[a]pyrene

> <FORMULA>
C20H12O

> <MASS>
268.309

> <MONOISOTOPIC_MASS>
268.08882

> <CHARGE>
0

> <SMILES>
Oc1ccc2ccc3c4ccccc4cc4ccc1c2c34

> <INCHI>
InChI=1S/C20H12O/c21-18-10-7-12-5-8-16-15-4-2-1-3-13(15)11-14-6-9-17(18)19(12)20(14)16/h1-11,21H

> <INCHIKEY>
SPUUWWRWIAEPDB-UHFFFAOYSA-N

> <CAS_REGISTRY_NUMBER>
13345-21-6

> <KEGG_COMPOUND_ACCESSION>
C14461

$$$$

Marvin  08240717142D          

 26 28  0  0  1  0            999 V2000
   -3.5362   -0.8250    0.0000 C   0  0  3  0  0  0  0  0  0  0  0  0
   -2.7112   -0.8250    0.0000 C   0  0  3  0  0  0  0  0  0  0  0  0
   -3.1237   -1.5395    0.0000 C   0  0  3  0  0  0  0  0  0  0  0  0
   -1.9967   -0.4125    0.0000 C   0  0  0  0  0  0  0  0  0  0  0  0
   -2.7112   -2.2539    0.0000 C   0  0  0  0  0  0  0  0  0  0  0  0
   -3.5362   -2.2539    0.0000 C   0  0  0  0  0  0  0  0  0  0  0  0
   -1.2822   -0.8250    0.0000 O   0  0  0  0  0  0  0  0  0  0  0  0
   -1.9967    0.4125    0.0000 O   0  0  0  0  0  0  0  0  0  0  0  0
   -4.2506   -0.4125    0.0000 C   0  0  0  0  0  0  0  0  0  0  0  0
   -4.9651   -0.8250    0.0000 C   0  0  0  0  0  0  0  0  0  0  0  0
   -4.9651   -1.6500    0.0000 Cl  0  0  0  0  0  0  0  0  0  0  0  0
   -0.5678   -0.4125    0.0000 C   0  0  0  0  0  0  0  0  0  0  0  0
    0.1467   -0.8250    0.0000 C   0  0  0  0  0  0  0  0  0  0  0  0
    0.8611   -0.4125    0.0000 C   0  0  0  0  0  0  0  0  0  0  0  0
    0.1467   -1.6500    0.0000 C   0  0  0  0  0  0  0  0  0  0  0  0
    0.8611   -2.0625    0.0000 C   0  0  0  0  0  0  0  0  0  0  0  0
    1.5756   -0.8250    0.0000 C   0  0  0  0  0  0  0  0  0  0  0  0
    2.2901   -0.4125    0.0000 O   0  0  0  0  0  0  0  0  0  0  0  0
    3.0045   -0.8250    0.0000 C   0  0  0  0  0  0  0  0  0  0  0  0
    3.7190   -0.4125    0.0000 C   0  0  0  0  0  0  0  0  0  0  0  0
    3.0045   -1.6500    0.0000 C   0  0  0  0  0  0  0  0  0  0  0  0
    3.7190   -2.0625    0.0000 C   0  0  0  0  0  0  0  0  0  0  0  0
    4.4335   -1.6500    0.0000 C   0  0  0  0  0  0  0  0  0  0  0  0
    4.4335   -0.8250    0.0000 C   0  0  0  0  0  0  0  0  0  0  0  0
    1.5756   -1.6500    0.0000 C   0  0  0  0  0  0  0  0  0  0  0  0
   -5.6796   -0.4125    0.0000 Cl  0  0  0  0  0  0  0  0  0  0  0  0
 12  7  1  0  0  0  0
  1  2  1  0  0  0  0
  1  3  1  0  0  0  0
  1  9  1  0  0  0  0
  2  4  1  0  0  0  0
  2  3  1  0  0  0  0
  3  5  1  0  0  0  0
  3  6  1  0  0  0  0
  4  7  1  0  0  0  0
  4  8  2  0  0  0  0
  9 10  2  0  0  0  0
 10 11  1  0  0  0  0
 10 26  1  0  0  0  0
 12 13  1  0  0  0  0
 14 13  2  0  0  0  0
 13 15  1  0  0  0  0
 14 17  1  0  0  0  0
 15 16  2  0  0  0  0
 16 25  1  0  0  0  0
 25 17  2  0  0  0  0
 17 18  1  0  0  0  0
 18 19  1  0  0  0  0
 20 19  2  0  0  0  0
 19 21  1  0  0  0  0
 20 24  1  0  0  0  0
 21 22  2  0  0  0  0
 22 23  1  0  0  0  0
 23 24  2  0  0  0  0
M  END
> <ID>
CHEBI:34911

> <NAME>
permethrin

> <DEFINITION>
A cyclopropanecarboxylate ester in which the esterifying alcohol is 3-phenoxybenzyl alcohol and the cyclopropane ring is substituted with a 2,2-dichlorovinyl group and with gem-dimethyl groups.

> <STAR>
3

> <SYNONYM>
Permethrin; 3-(2,2-Dichloroethenyl)-2,2-dimethylcyclopropane carboxylic acid, (3-phenoxyphenyl) methyl ester; (3-Phenoxyphenyl)methyl (+-)-cis,trans-3-(2,2-dichloroethenyl)-2,2-dimethylcyclopropanecarboxylate

> <IUPAC_NAME>
3-phenoxybenzyl 3-(2,2-dichloroethenyl)-2,2-dimethylcyclopropanecarboxylate

> <INN>
permethrin

> <FORMULA>
C21H20Cl2O3

> <MASS>
391.28710

> <MONOISOTOPIC_MASS>
390.07895

> <CHARGE>
0

> <SMILES>
CC1(C)C(C=C(Cl)Cl)C1C(=O)OCc1cccc(Oc2ccccc2)c1

> <INCHI>
InChI=1S/C21H20Cl2O3/c1-21(2)17(12-18(22)23)19(21)20(24)25-13-14-7-6-10-16(11-14)26-15-8-4-3-5-9-15/h3-12,17,19H,13H2,1-2H3

> <INCHIKEY>
RLLPVAHGXHCWKJ-UHFFFAOYSA-N

> <CAS_REGISTRY_NUMBER>
52645-53-1

> <REAXYS_REGISTRY_NUMBER>
5765325

> <CHEMIDPLUS>
52645-53-1

> <DRUGBANK_ACCESSION>
DB04930

> <KEGG_COMPOUND_ACCESSION>
C14388

> <KEGG_DRUG_ACCESSION>
D05443

> <WIKIPEDIA_ACCESSION>
Permethrin

> <PUBMED_CITATION>
11082455; 12419701; 14617103; 15599112; 15663293; 15966049; 16423402; 16481707; 16599165; 17140720; 17220085; 17451859; 17597311; 17980950; 18274958; 18570364; 18692543; 18723882; 19079720; 19090765; 19278716; 19343362; 19835699; 19962303; 20960224; 21069313; 21133424; 21235202; 21240732; 21251955; 21352824; 21485369; 21756140; 21809414; 21812972; 25042713

$$$$



23 24  0  0  1  0  0  0  0  0999 V2000
   20.3436  -19.9979    0.0000 C   0  0  0  0  0  0  0  0  0  0  0  0
   20.3436  -21.4074    0.0000 C   0  0  0  0  0  0  0  0  0  0  0  0
   21.5417  -22.1122    0.0000 C   0  0  0  0  0  0  0  0  0  0  0  0
   22.8103  -21.4074    0.0000 C   0  0  0  0  0  0  0  0  0  0  0  0
   22.8103  -19.9979    0.0000 C   0  0  0  0  0  0  0  0  0  0  0  0
   21.5417  -19.2931    0.0000 C   0  0  0  0  0  0  0  0  0  0  0  0
   21.5417  -17.8836    0.0000 O   0  0  0  0  0  0  0  0  0  0  0  0
   19.1455  -22.1122    0.0000 O   0  0  0  0  0  0  0  0  0  0  0  0
   24.0084  -19.2931    0.0000 C   0  0  0  0  0  0  0  0  0  0  0  0
   25.2065  -19.9979    0.0000 O   0  0  0  0  0  0  0  0  0  0  0  0
   26.4046  -19.2931    0.0000 C   0  0  0  0  0  0  0  0  0  0  0  0
   27.6027  -19.9979    0.0000 C   0  0  0  0  0  0  0  0  0  0  0  0
   28.8007  -19.2931    0.0000 C   0  0  0  0  0  0  0  0  0  0  0  0
   29.9988  -19.9979    0.0000 C   0  0  0  0  0  0  0  0  0  0  0  0
   29.9988  -21.4074    0.0000 C   0  0  0  0  0  0  0  0  0  0  0  0
   31.1970  -22.1122    0.0000 O   0  0  0  0  0  0  0  0  0  0  0  0
   28.8007  -22.1122    0.0000 C   0  0  0  0  0  0  0  0  0  0  0  0
   27.6027  -21.4074    0.0000 C   0  0  0  0  0  0  0  0  0  0  0  0
   26.4046  -22.1122    0.0000 C   0  0  0  0  0  0  0  0  0  0  0  0
   25.2065  -21.4074    0.0000 C   0  0  0  0  0  0  0  0  0  0  0  0
   24.0084  -22.1122    0.0000 C   0  0  0  0  0  0  0  0  0  0  0  0
   24.0084  -17.8836    0.0000 O   0  0  0  0  0  0  0  0  0  0  0  0
   26.4046  -17.8836    0.0000 C   0  0  0  0  0  0  0  0  0  0  0  0
  1  2  2  0     0  0
  2  3  1  0     0  0
  3  4  2  0     0  0
  4  5  1  0     0  0
  5  6  2  0     0  0
  1  6  1  0     0  0
  6  7  1  0     0  0
  2  8  1  0     0  0
  5  9  1  0     0  0
  9 10  1  0     0  0
 10 11  1  0     0  0
 11 12  1  0     0  0
 12 13  1  0     0  0
 13 14  1  0     0  0
 14 15  1  0     0  0
 15 16  2  0     0  0
 15 17  1  0     0  0
 17 18  1  0     0  0
 18 19  1  0     0  0
 19 20  1  0     0  0
 20 21  1  0     0  0
 21  4  1  0     0  0
  9 22  2  0     0  0
 11 23  1  1     0  0
M  END
> <ID>
CHEBI:35051

> <NAME>
Zearalanone

> <STAR>
2

> <SYNONYM>
Zearalanone; (S)-Zearalanone

> <FORMULA>
C18H24O5

> <MASS>
320.381

> <MONOISOTOPIC_MASS>
320.16237

> <CHARGE>
0

> <SMILES>
C[C@H]1CCCC(=O)CCCCCc2cc(O)cc(O)c2C(=O)O1

> <INCHI>
InChI=1S/C18H24O5/c1-12-6-5-9-14(19)8-4-2-3-7-13-10-15(20)11-16(21)17(13)18(22)23-12/h10-12,20-21H,2-9H2,1H3/t12-/m0/s1

> <INCHIKEY>
APJDQUGPCJRQRJ-LBPRGKRZSA-N

> <CAS_REGISTRY_NUMBER>
5975-78-0

> <KEGG_COMPOUND_ACCESSION>
C14754

$$$$



23 24  0  0  1  0  0  0  0  0999 V2000
   19.9935  -18.7378    0.0000 C   0  0  0  0  0  0  0  0  0  0  0  0
   19.9935  -20.1473    0.0000 C   0  0  0  0  0  0  0  0  0  0  0  0
   21.1916  -20.8521    0.0000 C   0  0  0  0  0  0  0  0  0  0  0  0
   22.4602  -20.1473    0.0000 C   0  0  0  0  0  0  0  0  0  0  0  0
   22.4602  -18.7378    0.0000 C   0  0  0  0  0  0  0  0  0  0  0  0
   21.1916  -18.0330    0.0000 C   0  0  0  0  0  0  0  0  0  0  0  0
   21.1916  -16.6235    0.0000 O   0  0  0  0  0  0  0  0  0  0  0  0
   18.7954  -20.8521    0.0000 O   0  0  0  0  0  0  0  0  0  0  0  0
   23.6583  -18.0330    0.0000 C   0  0  0  0  0  0  0  0  0  0  0  0
   24.8564  -18.7378    0.0000 O   0  0  0  0  0  0  0  0  0  0  0  0
   26.0545  -18.0330    0.0000 C   0  0  0  0  0  0  0  0  0  0  0  0
   27.2526  -18.7378    0.0000 C   0  0  0  0  0  0  0  0  0  0  0  0
   28.4506  -18.0330    0.0000 C   0  0  0  0  0  0  0  0  0  0  0  0
   29.6487  -18.7378    0.0000 C   0  0  0  0  0  0  0  0  0  0  0  0
   29.6487  -20.1473    0.0000 C   0  0  0  0  0  0  0  0  0  0  0  0
   30.8469  -20.8521    0.0000 O   0  0  0  0  0  0  0  0  0  0  0  0
   28.4506  -20.8521    0.0000 C   0  0  0  0  0  0  0  0  0  0  0  0
   27.2526  -20.1473    0.0000 C   0  0  0  0  0  0  0  0  0  0  0  0
   26.0545  -20.8521    0.0000 C   0  0  0  0  0  0  0  0  0  0  0  0
   24.8564  -20.1473    0.0000 C   0  0  0  0  0  0  0  0  0  0  0  0
   23.6583  -20.8521    0.0000 C   0  0  0  0  0  0  0  0  0  0  0  0
   23.6583  -16.6235    0.0000 O   0  0  0  0  0  0  0  0  0  0  0  0
   26.0545  -16.6235    0.0000 C   0  0  0  0  0  0  0  0  0  0  0  0
  1  2  2  0     0  0
  2  3  1  0     0  0
  3  4  2  0     0  0
  4  5  1  0     0  0
  5  6  2  0     0  0
  1  6  1  0     0  0
  6  7  1  0     0  0
  2  8  1  0     0  0
  5  9  1  0     0  0
  9 10  1  0     0  0
 10 11  1  0     0  0
 11 12  1  0     0  0
 12 13  1  0     0  0
 13 14  1  0     0  0
 14 15  1  0     0  0
 15 16  1  6     0  0
 15 17  1  0     0  0
 17 18  1  0     0  0
 18 19  1  0     0  0
 19 20  1  0     0  0
 20 21  1  0     0  0
 21  4  1  0     0  0
  9 22  2  0     0  0
 11 23  1  1     0  0
M  END
> <ID>
CHEBI:35064

> <NAME>
alpha-Zearalanol

> <STAR>
2

> <SYNONYM>
Zeranol; zearanol; zearalanol; ralabol; alpha-Zearalanol

> <FORMULA>
C18H26O5

> <MASS>
322.397

> <MONOISOTOPIC_MASS>
322.17802

> <CHARGE>
0

> <SMILES>
C[C@H]1CCC[C@H](O)CCCCCc2cc(O)cc(O)c2C(=O)O1

> <INCHI>
InChI=1S/C18H26O5/c1-12-6-5-9-14(19)8-4-2-3-7-13-10-15(20)11-16(21)17(13)18(22)23-12/h10-12,14,19-21H,2-9H2,1H3/t12-,14+/m0/s1

> <INCHIKEY>
DWTTZBARDOXEAM-GXTWGEPZSA-N

> <CAS_REGISTRY_NUMBER>
26538-44-3

> <KEGG_COMPOUND_ACCESSION>
C14752

> <KEGG_DRUG_ACCESSION>
D06362

$$$$



23 24  0  0  1  0  0  0  0  0999 V2000
   16.6600  -17.2900    0.0000 C   0  0  0  0  0  0  0  0  0  0  0  0
   16.6600  -18.6900    0.0000 C   0  0  0  0  0  0  0  0  0  0  0  0
   17.8500  -19.3900    0.0000 C   0  0  0  0  0  0  0  0  0  0  0  0
   19.1100  -18.6900    0.0000 C   0  0  0  0  0  0  0  0  0  0  0  0
   19.1100  -17.2900    0.0000 C   0  0  0  0  0  0  0  0  0  0  0  0
   17.8500  -16.5900    0.0000 C   0  0  0  0  0  0  0  0  0  0  0  0
   17.8500  -15.1900    0.0000 O   0  0  0  0  0  0  0  0  0  0  0  0
   15.4700  -19.3900    0.0000 O   0  0  0  0  0  0  0  0  0  0  0  0
   20.3000  -16.5900    0.0000 C   0  0  0  0  0  0  0  0  0  0  0  0
   21.4900  -17.2900    0.0000 O   0  0  0  0  0  0  0  0  0  0  0  0
   22.6800  -16.5900    0.0000 C   0  0  0  0  0  0  0  0  0  0  0  0
   23.8700  -17.2900    0.0000 C   0  0  0  0  0  0  0  0  0  0  0  0
   25.0600  -16.5900    0.0000 C   0  0  0  0  0  0  0  0  0  0  0  0
   26.2500  -17.2900    0.0000 C   0  0  0  0  0  0  0  0  0  0  0  0
   26.2500  -18.6900    0.0000 C   0  0  0  0  0  0  0  0  0  0  0  0
   27.4400  -19.3900    0.0000 O   0  0  0  0  0  0  0  0  0  0  0  0
   25.0600  -19.3900    0.0000 C   0  0  0  0  0  0  0  0  0  0  0  0
   23.8700  -18.6900    0.0000 C   0  0  0  0  0  0  0  0  0  0  0  0
   22.6800  -19.3900    0.0000 C   0  0  0  0  0  0  0  0  0  0  0  0
   21.4900  -18.6900    0.0000 C   0  0  0  0  0  0  0  0  0  0  0  0
   20.3000  -19.3900    0.0000 C   0  0  0  0  0  0  0  0  0  0  0  0
   20.3000  -15.1900    0.0000 O   0  0  0  0  0  0  0  0  0  0  0  0
   22.6800  -15.1900    0.0000 C   0  0  0  0  0  0  0  0  0  0  0  0
  1  2  2  0     0  0
  2  3  1  0     0  0
  3  4  2  0     0  0
  4  5  1  0     0  0
  5  6  2  0     0  0
  1  6  1  0     0  0
  6  7  1  0     0  0
  2  8  1  0     0  0
  5  9  1  0     0  0
  9 10  1  0     0  0
 10 11  1  0     0  0
 11 12  1  0     0  0
 12 13  1  0     0  0
 13 14  1  0     0  0
 14 15  1  0     0  0
 15 16  1  6     0  0
 15 17  1  0     0  0
 17 18  1  0     0  0
 18 19  1  0     0  0
 19 20  1  0     0  0
 20 21  2  0     0  0
 21  4  1  0     0  0
  9 22  2  0     0  0
 11 23  1  1     0  0
M  END
> <ID>
CHEBI:35065

> <NAME>
alpha-Zearalenol

> <STAR>
2

> <SYNONYM>
trans-Zearalenol; alpha-Zearalenol

> <FORMULA>
C18H24O5

> <MASS>
320.381

> <MONOISOTOPIC_MASS>
320.16237

> <CHARGE>
0

> <SMILES>
C[C@H]1CCC[C@H](O)CCC\C=C\c2cc(O)cc(O)c2C(=O)O1

> <INCHI>
InChI=1S/C18H24O5/c1-12-6-5-9-14(19)8-4-2-3-7-13-10-15(20)11-16(21)17(13)18(22)23-12/h3,7,10-12,14,19-21H,2,4-6,8-9H2,1H3/b7-3+/t12-,14+/m0/s1

> <INCHIKEY>
FPQFYIAXQDXNOR-QDKLYSGJSA-N

> <CAS_REGISTRY_NUMBER>
36455-72-8

> <HMDB_ACCESSION>
HMDB0041824

> <KEGG_COMPOUND_ACCESSION>
C14750

$$$$



23 24  0  0  1  0  0  0  0  0999 V2000
   19.9936  -18.7379    0.0000 C   0  0  0  0  0  0  0  0  0  0  0  0
   19.9936  -20.1474    0.0000 C   0  0  0  0  0  0  0  0  0  0  0  0
   21.1917  -20.8522    0.0000 C   0  0  0  0  0  0  0  0  0  0  0  0
   22.4603  -20.1474    0.0000 C   0  0  0  0  0  0  0  0  0  0  0  0
   22.4603  -18.7379    0.0000 C   0  0  0  0  0  0  0  0  0  0  0  0
   21.1917  -18.0331    0.0000 C   0  0  0  0  0  0  0  0  0  0  0  0
   21.1917  -16.6236    0.0000 O   0  0  0  0  0  0  0  0  0  0  0  0
   18.7955  -20.8522    0.0000 O   0  0  0  0  0  0  0  0  0  0  0  0
   23.6584  -18.0331    0.0000 C   0  0  0  0  0  0  0  0  0  0  0  0
   24.8565  -18.7379    0.0000 O   0  0  0  0  0  0  0  0  0  0  0  0
   26.0546  -18.0331    0.0000 C   0  0  0  0  0  0  0  0  0  0  0  0
   27.2527  -18.7379    0.0000 C   0  0  0  0  0  0  0  0  0  0  0  0
   28.4507  -18.0331    0.0000 C   0  0  0  0  0  0  0  0  0  0  0  0
   29.6488  -18.7379    0.0000 C   0  0  0  0  0  0  0  0  0  0  0  0
   29.6488  -20.1474    0.0000 C   0  0  0  0  0  0  0  0  0  0  0  0
   30.8470  -20.8522    0.0000 O   0  0  0  0  0  0  0  0  0  0  0  0
   28.4507  -20.8522    0.0000 C   0  0  0  0  0  0  0  0  0  0  0  0
   27.2527  -20.1474    0.0000 C   0  0  0  0  0  0  0  0  0  0  0  0
   26.0546  -20.8522    0.0000 C   0  0  0  0  0  0  0  0  0  0  0  0
   24.8565  -20.1474    0.0000 C   0  0  0  0  0  0  0  0  0  0  0  0
   23.6584  -20.8522    0.0000 C   0  0  0  0  0  0  0  0  0  0  0  0
   23.6584  -16.6236    0.0000 O   0  0  0  0  0  0  0  0  0  0  0  0
   26.0546  -16.6236    0.0000 C   0  0  0  0  0  0  0  0  0  0  0  0
  1  2  2  0     0  0
  2  3  1  0     0  0
  3  4  2  0     0  0
  4  5  1  0     0  0
  5  6  2  0     0  0
  1  6  1  0     0  0
  6  7  1  0     0  0
  2  8  1  0     0  0
  5  9  1  0     0  0
  9 10  1  0     0  0
 10 11  1  0     0  0
 11 12  1  0     0  0
 12 13  1  0     0  0
 13 14  1  0     0  0
 14 15  1  0     0  0
 15 16  1  1     0  0
 15 17  1  0     0  0
 17 18  1  0     0  0
 18 19  1  0     0  0
 19 20  1  0     0  0
 20 21  1  0     0  0
 21  4  1  0     0  0
  9 22  2  0     0  0
 11 23  1  1     0  0
M  END
> <ID>
CHEBI:35071

> <NAME>
beta-Zearalanol

> <STAR>
2

> <SYNONYM>
Taleranol; beta-Zearalanol

> <FORMULA>
C18H26O5

> <MASS>
322.397

> <MONOISOTOPIC_MASS>
322.17802

> <CHARGE>
0

> <SMILES>
C[C@H]1CCC[C@@H](O)CCCCCc2cc(O)cc(O)c2C(=O)O1

> <INCHI>
InChI=1S/C18H26O5/c1-12-6-5-9-14(19)8-4-2-3-7-13-10-15(20)11-16(21)17(13)18(22)23-12/h10-12,14,19-21H,2-9H2,1H3/t12-,14-/m0/s1

> <INCHIKEY>
DWTTZBARDOXEAM-JSGCOSHPSA-N

> <CAS_REGISTRY_NUMBER>
42422-68-4

> <KEGG_COMPOUND_ACCESSION>
C14753

> <KEGG_DRUG_ACCESSION>
D05992

$$$$



23 24  0  0  1  0  0  0  0  0999 V2000
   20.3435  -19.9978    0.0000 C   0  0  0  0  0  0  0  0  0  0  0  0
   20.3435  -21.4073    0.0000 C   0  0  0  0  0  0  0  0  0  0  0  0
   21.5416  -22.1121    0.0000 C   0  0  0  0  0  0  0  0  0  0  0  0
   22.8102  -21.4073    0.0000 C   0  0  0  0  0  0  0  0  0  0  0  0
   22.8102  -19.9978    0.0000 C   0  0  0  0  0  0  0  0  0  0  0  0
   21.5416  -19.2930    0.0000 C   0  0  0  0  0  0  0  0  0  0  0  0
   21.5416  -17.8835    0.0000 O   0  0  0  0  0  0  0  0  0  0  0  0
   19.1454  -22.1121    0.0000 O   0  0  0  0  0  0  0  0  0  0  0  0
   24.0083  -19.2930    0.0000 C   0  0  0  0  0  0  0  0  0  0  0  0
   25.2064  -19.9978    0.0000 O   0  0  0  0  0  0  0  0  0  0  0  0
   26.4045  -19.2930    0.0000 C   0  0  0  0  0  0  0  0  0  0  0  0
   27.6026  -19.9978    0.0000 C   0  0  0  0  0  0  0  0  0  0  0  0
   28.8007  -19.2930    0.0000 C   0  0  0  0  0  0  0  0  0  0  0  0
   29.9988  -19.9978    0.0000 C   0  0  0  0  0  0  0  0  0  0  0  0
   29.9988  -21.4073    0.0000 C   0  0  0  0  0  0  0  0  0  0  0  0
   31.1970  -22.1121    0.0000 O   0  0  0  0  0  0  0  0  0  0  0  0
   28.8007  -22.1121    0.0000 C   0  0  0  0  0  0  0  0  0  0  0  0
   27.6026  -21.4073    0.0000 C   0  0  0  0  0  0  0  0  0  0  0  0
   26.4045  -22.1121    0.0000 C   0  0  0  0  0  0  0  0  0  0  0  0
   25.2064  -21.4073    0.0000 C   0  0  0  0  0  0  0  0  0  0  0  0
   24.0083  -22.1121    0.0000 C   0  0  0  0  0  0  0  0  0  0  0  0
   24.0083  -17.8835    0.0000 O   0  0  0  0  0  0  0  0  0  0  0  0
   26.4045  -17.8835    0.0000 C   0  0  0  0  0  0  0  0  0  0  0  0
  1  2  2  0     0  0
  2  3  1  0     0  0
  3  4  2  0     0  0
  4  5  1  0     0  0
  5  6  2  0     0  0
  1  6  1  0     0  0
  6  7  1  0     0  0
  2  8  1  0     0  0
  5  9  1  0     0  0
  9 10  1  0     0  0
 10 11  1  0     0  0
 11 12  1  0     0  0
 12 13  1  0     0  0
 13 14  1  0     0  0
 14 15  1  0     0  0
 15 16  1  1     0  0
 15 17  1  0     0  0
 17 18  1  0     0  0
 18 19  1  0     0  0
 19 20  1  0     0  0
 20 21  2  0     0  0
 21  4  1  0     0  0
  9 22  2  0     0  0
 11 23  1  1     0  0
M  END
> <ID>
CHEBI:35072

> <NAME>
beta-Zearalenol

> <STAR>
2

> <SYNONYM>
beta-Zearalenol; beta-trans-Zearalenol

> <FORMULA>
C18H24O5

> <MASS>
320.381

> <MONOISOTOPIC_MASS>
320.16237

> <CHARGE>
0

> <SMILES>
C[C@H]1CCC[C@@H](O)CCC\C=C\c2cc(O)cc(O)c2C(=O)O1

> <INCHI>
InChI=1S/C18H24O5/c1-12-6-5-9-14(19)8-4-2-3-7-13-10-15(20)11-16(21)17(13)18(22)23-12/h3,7,10-12,14,19-21H,2,4-6,8-9H2,1H3/b7-3+/t12-,14-/m0/s1

> <INCHIKEY>
FPQFYIAXQDXNOR-PMRAARRBSA-N

> <CAS_REGISTRY_NUMBER>
71030-11-0

> <KEGG_COMPOUND_ACCESSION>
C14751

$$$$

Marvin  03210616012D          

 16 16  0  0  0  0            999 V2000
   -0.2387    0.7568    0.0000 O   0  0  0  0  0  0  0  0  0  0  0  0
    0.4757    0.3443    0.0000 C   0  0  3  0  0  0  0  0  0  0  0  0
    0.4757   -0.4807    0.0000 C   0  0  1  0  0  0  0  0  0  0  0  0
    1.1902   -0.8932    0.0000 O   0  0  0  0  0  0  0  0  0  0  0  0
   -0.2387   -0.8932    0.0000 C   0  0  1  0  0  0  0  0  0  0  0  0
   -0.2387   -1.7182    0.0000 O   0  0  0  0  0  0  0  0  0  0  0  0
   -0.9532   -0.4807    0.0000 C   0  0  2  0  0  0  0  0  0  0  0  0
   -1.6677   -0.8932    0.0000 O   0  0  0  0  0  0  0  0  0  0  0  0
   -0.9532    0.3443    0.0000 C   0  0  1  0  0  0  0  0  0  0  0  0
   -1.6677    0.7568    0.0000 C   0  0  0  0  0  0  0  0  0  0  0  0
   -2.3822    0.3443    0.0000 O   0  0  0  0  0  0  0  0  0  0  0  0
    1.1902    0.7568    0.0000 O   0  0  0  0  0  0  0  0  0  0  0  0
    2.0152    1.5818    0.0000 O   0  0  0  0  0  0  0  0  0  0  0  0
    2.8402    0.7568    0.0000 O   0  0  0  0  0  0  0  0  0  0  0  0
    2.0152    0.7568    0.0000 P   0  0  3  0  0  0  0  0  0  0  0  0
    2.0152   -0.0682    0.0000 O   0  0  0  0  0  0  0  0  0  0  0  0
  1  9  1  0  0  0  0
  1  2  1  0  0  0  0
  9  7  1  0  0  0  0
  7  5  1  0  0  0  0
  5  3  1  0  0  0  0
  3  2  1  0  0  0  0
  2 12  1  0  0  0  0
  3  4  1  1  0  0  0
  5  6  1  1  0  0  0
  7  8  1  6  0  0  0
  9 10  1  1  0  0  0
 10 11  1  0  0  0  0
 12 15  1  0  0  0  0
 15 13  2  0  0  0  0
 15 14  1  0  0  0  0
 15 16  1  0  0  0  0
M  END
> <ID>
CHEBI:35374

> <NAME>
D-mannose 1-phosphate

> <DEFINITION>
A mannose phosphate that is D-mannose carrying a phosphate group at position 1.

> <STAR>
3

> <SECONDARY_ID>
CHEBI:21058; CHEBI:4210

> <SYNONYM>
Mannose 1-phosphate; D-mannose 1-phosphates; D-Mannose 1-phosphate

> <IUPAC_NAME>
D-mannopyranose 1-(dihydrogen phosphate)

> <FORMULA>
C6H13O9P

> <MASS>
260.13578

> <MONOISOTOPIC_MASS>
260.02972

> <CHARGE>
0

> <SMILES>
OC[C@H]1OC(OP(O)(O)=O)[C@@H](O)[C@@H](O)[C@@H]1O

> <INCHI>
InChI=1S/C6H13O9P/c7-1-2-3(8)4(9)5(10)6(14-2)15-16(11,12)13/h2-10H,1H2,(H2,11,12,13)/t2-,3-,4+,5+,6?/m1/s1

> <INCHIKEY>
HXXFSFRBOHSIMQ-QTVWNMPRSA-N

> <CAS_REGISTRY_NUMBER>
27251-84-9

> <CHEMIDPLUS>
27251-84-9

> <DRUGBANK_ACCESSION>
DB02867

> <ECMDB_ACCESSION>
ECMDB01436

> <HMDB_ACCESSION>
HMDB0006330

> <KEGG_COMPOUND_ACCESSION>
C00636

> <KNAPSACK_ACCESSION>
C00007389

> <WIKIPEDIA_ACCESSION>
Mannose_1-phosphate

> <YMDB_ACCESSION>
YMDB00386

> <PUBMED_CITATION>
23281814

$$$$

Marvin  05170611462D          

 13 12  0  0  1  0            999 V2000
    1.5040    0.1974    0.0000 C   0  0  0  0  0  0  0  0  0  0  0  0
    1.5040    1.0224    0.0000 O   0  0  0  0  0  0  0  0  0  0  0  0
    0.7895   -0.2151    0.0000 C   0  0  2  0  0  0  0  0  0  0  0  0
   -2.0683   -0.2151    0.0000 C   0  0  0  0  0  0  0  0  0  0  0  0
    0.0751    0.1974    0.0000 C   0  0  0  0  0  0  0  0  0  0  0  0
   -1.3539    0.1974    0.0000 C   0  0  0  0  0  0  0  0  0  0  0  0
   -0.6394   -0.2151    0.0000 C   0  0  0  0  0  0  0  0  0  0  0  0
    2.2185   -0.2151    0.0000 O   0  0  0  0  0  0  0  0  0  0  0  0
   -2.7828    0.1974    0.0000 N   0  0  0  0  0  0  0  0  0  0  0  0
    0.7895   -1.0401    0.0000 N   0  0  0  0  0  0  0  0  0  0  0  0
    0.0751   -1.4526    0.0000 C   0  0  0  0  0  0  0  0  0  0  0  0
   -0.6394   -1.0401    0.0000 C   0  0  0  0  0  0  0  0  0  0  0  0
    0.0751   -2.2776    0.0000 O   0  0  0  0  0  0  0  0  0  0  0  0
  1  2  2  0  0  0  0
  1  3  1  0  0  0  0
  3 10  1  1  0  0  0
  3  5  1  0  0  0  0
  9  4  1  0  0  0  0
  4  6  1  0  0  0  0
  5  7  1  0  0  0  0
  6  7  1  0  0  0  0
  8  1  1  0  0  0  0
 10 11  1  0  0  0  0
 11 13  2  0  0  0  0
 11 12  1  0  0  0  0
M  END
> <ID>
CHEBI:35704

> <NAME>
N(2)-acetyl-L-lysine

> <DEFINITION>
An acetyl-L-lysine where the acetyl group is located at the N2-posiiton.

> <STAR>
3

> <SECONDARY_ID>
CHEBI:21813; CHEBI:31888

> <SYNONYM>
N(alpha)-acetyl-L-lysine; N2-Acetyl-L-lysine; N-alpha-acetyl-L-lysine; N-acetyl-L-lysine; N(alpha)-acetyllysine; (2S)-2-(acetylamino)-6-aminohexanoic acid

> <IUPAC_NAME>
N(2)-acetyl-L-lysine

> <FORMULA>
C8H16N2O3

> <MASS>
188.22432

> <MONOISOTOPIC_MASS>
188.11609

> <CHARGE>
0

> <SMILES>
CC(=O)N[C@@H](CCCCN)C(O)=O

> <INCHI>
InChI=1S/C8H16N2O3/c1-6(11)10-7(8(12)13)4-2-3-5-9/h7H,2-5,9H2,1H3,(H,10,11)(H,12,13)/t7-/m0/s1

> <INCHIKEY>
VEYYWZRYIYDQJM-ZETCQYMHSA-N

> <BEILSTEIN_REGISTRY_NUMBER>
1726281

> <CAS_REGISTRY_NUMBER>
1946-82-3

> <GMELIN_REGISTRY_NUMBER>
747423

> <REAXYS_REGISTRY_NUMBER>
1726281

> <CHEMIDPLUS>
1946-82-3

> <HMDB_ACCESSION>
HMDB0000446

> <KEGG_COMPOUND_ACCESSION>
C12989

> <PUBMED_CITATION>
12212910; 15131313; 16274666; 26800898; 2897459

$$$$

Ketcher 04251611392D 1   1.00000     0.00000     0

 26 29  0     0  0            999 V2000
   12.4410  -20.6907    0.0000 C   0  0  0  0  0  0  0  0  0  0  0  0
   12.4410  -18.6906    0.0000 C   0  0  0  0  0  0  0  0  0  0  0  0
   13.3071  -20.1907    0.0000 C   0  0  0  0  0  0  0  0  0  0  0  0
   13.3071  -19.1907    0.0000 C   0  0  0  0  0  0  0  0  0  0  0  0
   15.0390  -20.1907    0.0000 C   0  0  0  0  0  0  0  0  0  0  0  0
   14.1730  -18.6906    0.0000 C   0  0  0  0  0  0  0  0  0  0  0  0
   14.1730  -17.6906    0.0000 O   0  0  0  0  0  0  0  0  0  0  0  0
   15.0390  -19.1907    0.0000 C   0  0  0  0  0  0  0  0  0  0  0  0
   15.9052  -17.6908    0.0000 O   0  0  0  0  0  0  0  0  0  0  0  0
   15.9052  -18.6908    0.0000 C   0  0  0  0  0  0  0  0  0  0  0  0
   16.7710  -19.1907    0.0000 O   0  0  0  0  0  0  0  0  0  0  0  0
   11.5750  -20.1907    0.0000 C   0  0  0  0  0  0  0  0  0  0  0  0
    9.8430  -22.1907    0.0000 C   0  0  0  0  0  0  0  0  0  0  0  0
    8.9770  -20.6907    0.0000 C   0  0  0  0  0  0  0  0  0  0  0  0
    9.8430  -20.1907    0.0000 C   0  0  0  0  0  0  0  0  0  0  0  0
   10.7090  -21.6907    0.0000 C   0  0  0  0  0  0  0  0  0  0  0  0
   10.7090  -20.6907    0.0000 N   0  0  0  0  0  0  0  0  0  0  0  0
    8.9770  -21.6907    0.0000 N   0  0  0  0  0  0  0  0  0  0  0  0
    8.1110  -22.1907    0.0000 C   0  0  0  0  0  0  0  0  0  0  0  0
   11.5750  -19.1907    0.0000 C   0  0  0  0  0  0  0  0  0  0  0  0
   10.7090  -18.6908    0.0000 F   0  0  0  0  0  0  0  0  0  0  0  0
   14.1730  -20.6907    0.0000 N   0  0  0  0  0  0  0  0  0  0  0  0
   14.1730  -21.6907    0.0000 C   0  0  0  0  0  0  0  0  0  0  0  0
   13.6730  -22.5568    0.0000 C   0  0  0  0  0  0  0  0  0  0  0  0
   14.6730  -22.5568    0.0000 C   0  0  0  0  0  0  0  0  0  0  0  0
    8.1110  -23.1907    0.0000 C   0  0  0  0  0  0  0  0  0  0  0  0
  1 12  2  0     0  0
  1  3  1  0     0  0
 12 20  1  0     0  0
 20  2  2  0     0  0
  2  4  1  0     0  0
 22  3  1  0     0  0
  3  4  2  0     0  0
  4  6  1  0     0  0
 22  5  1  0     0  0
  6  8  1  0     0  0
  8  5  2  0     0  0
  6  7  2  0     0  0
  8 10  1  0     0  0
 10  9  2  0     0  0
 10 11  1  0     0  0
 12 17  1  0     0  0
 15 17  1  0     0  0
 17 16  1  0     0  0
 13 18  1  0     0  0
 13 16  1  0     0  0
 18 14  1  0     0  0
 14 15  1  0     0  0
 18 19  1  0     0  0
 20 21  1  0     0  0
 22 23  1  0     0  0
 23 24  1  0     0  0
 23 25  1  0     0  0
 24 25  1  0     0  0
 19 26  1  0     0  0
M  END
> <ID>
CHEBI:35720

> <NAME>
enrofloxacin

> <DEFINITION>
A quinolinemonocarboxylic acid that is 1,4-dihydroquinoline-3-carboxylic acid substituted by an oxo group at position 4, a fluoro group at position 6, a cyclopropyl group at position 1 and a 4-ethylpiperazin-1-yl group at position 7. It is a veterinary antibacterial agent used for the treatment of pets.

> <STAR>
3

> <SYNONYM>
Enrofloxacin; Baytril

> <IUPAC_NAME>
1-cyclopropyl-7-(4-ethylpiperazin-1-yl)-6-fluoro-4-oxo-1,4-dihydroquinoline-3-carboxylic acid

> <FORMULA>
C19H22FN3O3

> <MASS>
359.395

> <MONOISOTOPIC_MASS>
359.16452

> <CHARGE>
0

> <SMILES>
C1=C(C(=CC2=C1N(C=C(C2=O)C(=O)O)C3CC3)F)N4CCN(CC4)CC

> <INCHI>
InChI=1S/C19H22FN3O3/c1-2-21-5-7-22(8-6-21)17-10-16-13(9-15(17)20)18(24)14(19(25)26)11-23(16)12-3-4-12/h9-12H,2-8H2,1H3,(H,25,26)

> <INCHIKEY>
SPFYMRJSYKOXGV-UHFFFAOYSA-N

> <CAS_REGISTRY_NUMBER>
93106-60-6

> <REAXYS_REGISTRY_NUMBER>
5307824

> <CHEMIDPLUS>
93106-60-6

> <HMDB_ACCESSION>
HMDB0029861

> <KEGG_DRUG_ACCESSION>
D02473

> <LINCS_ACCESSION>
LSM-3709

> <WIKIPEDIA_ACCESSION>
Enrofloxacin

> <PUBMED_CITATION>
15967281; 19376344; 24380725; 26963935; 8828132

$$$$

Marvin  05181112502D          

 36 38  0  0  1  0            999 V2000
    9.9212   -3.7162    0.0000 C   0  0  0  0  0  0  0  0  0  0  0  0
    9.9212   -4.5412    0.0000 C   0  0  1  0  0  0  0  0  0  0  0  0
    9.2068   -3.3037    0.0000 O   0  0  0  0  0  0  0  0  0  0  0  0
    9.2068   -4.9537    0.0000 C   0  0  2  0  0  0  0  0  0  0  0  0
    8.4924   -3.7162    0.0000 C   0  0  1  0  0  0  0  0  0  0  0  0
    8.4924   -4.5412    0.0000 C   0  0  2  0  0  0  0  0  0  0  0  0
   10.6357   -3.3037    0.0000 O   0  0  0  0  0  0  0  0  0  0  0  0
   10.6357   -4.9537    0.0000 O   0  0  0  0  0  0  0  0  0  0  0  0
    9.2068   -5.7786    0.0000 O   0  0  0  0  0  0  0  0  0  0  0  0
    7.7778   -4.9537    0.0000 O   0  0  0  0  0  0  0  0  0  0  0  0
    7.7778   -3.3037    0.0000 C   0  0  0  0  0  0  0  0  0  0  0  0
    7.0634   -3.7162    0.0000 O   0  0  0  0  0  0  0  0  0  0  0  0
    8.4924   -6.1911    0.0000 C   0  0  2  0  0  0  0  0  0  0  0  0
    8.4924   -7.0161    0.0000 C   0  0  1  0  0  0  0  0  0  0  0  0
    7.7778   -5.7786    0.0000 O   0  0  0  0  0  0  0  0  0  0  0  0
    7.7778   -7.4285    0.0000 C   0  0  2  0  0  0  0  0  0  0  0  0
    7.0634   -6.1911    0.0000 C   0  0  1  0  0  0  0  0  0  0  0  0
    7.0634   -7.0161    0.0000 C   0  0  2  0  0  0  0  0  0  0  0  0
    9.2068   -7.4285    0.0000 N   0  0  0  0  0  0  0  0  0  0  0  0
    7.7778   -8.2535    0.0000 O   0  0  0  0  0  0  0  0  0  0  0  0
    6.3490   -7.4285    0.0000 O   0  0  0  0  0  0  0  0  0  0  0  0
    6.3490   -5.7786    0.0000 C   0  0  0  0  0  0  0  0  0  0  0  0
    5.6344   -6.1911    0.0000 O   0  0  0  0  0  0  0  0  0  0  0  0
   11.3501   -6.1911    0.0000 O   0  0  0  0  0  0  0  0  0  0  0  0
   12.0645   -6.6036    0.0000 C   0  0  2  0  0  0  0  0  0  0  0  0
   11.3501   -5.3661    0.0000 C   0  0  2  0  0  0  0  0  0  0  0  0
   12.0645   -4.9536    0.0000 C   0  0  2  0  0  0  0  0  0  0  0  0
   12.7791   -5.3662    0.0000 C   0  0  1  0  0  0  0  0  0  0  0  0
   12.7791   -6.1912    0.0000 C   0  0  2  0  0  0  0  0  0  0  0  0
   12.0647   -4.1287    0.0000 O   0  0  0  0  0  0  0  0  0  0  0  0
   13.4935   -4.9537    0.0000 O   0  0  0  0  0  0  0  0  0  0  0  0
   13.4935   -6.6036    0.0000 O   0  0  0  0  0  0  0  0  0  0  0  0
   12.0645   -7.4286    0.0000 C   0  0  0  0  0  0  0  0  0  0  0  0
    9.2068   -8.2535    0.0000 C   0  0  0  0  0  0  0  0  0  0  0  0
    9.9213   -8.6659    0.0000 O   0  0  0  0  0  0  0  0  0  0  0  0
    8.4924   -8.6660    0.0000 C   0  0  0  0  0  0  0  0  0  0  0  0
  1  2  1  0  0  0  0
  1  3  1  0  0  0  0
  2  4  1  0  0  0  0
  3  5  1  0  0  0  0
  4  6  1  0  0  0  0
  5  6  1  0  0  0  0
  1  7  1  0  0  0  0
  2  8  1  6  0  0  0
  4  9  1  1  0  0  0
  6 10  1  1  0  0  0
  5 11  1  1  0  0  0
 12 11  1  0  0  0  0
 13 14  1  0  0  0  0
 13 15  1  0  0  0  0
 14 16  1  0  0  0  0
 15 17  1  0  0  0  0
 16 18  1  0  0  0  0
 17 18  1  0  0  0  0
 13  9  1  6  0  0  0
 14 19  1  6  0  0  0
 16 20  1  1  0  0  0
 18 21  1  1  0  0  0
 17 22  1  1  0  0  0
 23 22  1  0  0  0  0
 25 24  1  0  0  0  0
 26 24  1  0  0  0  0
 26  8  1  1  0  0  0
 26 27  1  0  0  0  0
 27 30  1  1  0  0  0
 27 28  1  0  0  0  0
 28 31  1  6  0  0  0
 28 29  1  0  0  0  0
 29 25  1  0  0  0  0
 29 32  1  6  0  0  0
 25 33  1  6  0  0  0
 35 34  2  0  0  0  0
 36 34  1  0  0  0  0
 19 34  1  0  0  0  0
M  END
> <ID>
CHEBI:35930

> <NAME>
alpha-D-GalpNAc-(1->3)-[alpha-L-Fucp-(1->2)]-D-Galp

> <DEFINITION>
A branched amino trisaccharide consisting of D-galactose having an α-L-fucosyl residue at the 2-position and an N-acetyl-α-D-galactosaminyl residue at the 3-position.

> <STAR>
3

> <SECONDARY_ID>
CHEBI:60301; CHEBI:62106

> <SYNONYM>
N-acetyl-alpha-D-galactosaminyl-(1->3)-[alpha-L-fucosyl-(1->2)]-D-galactose; GalNAcalpha1->3(LFucalpha1->2)Gal; GalNAcalpha1-3(Fucalpha1-2)Gal; GalNAc-alpha1,3(Fuc-alpha1,2)Gal; Fucalpha1-2(GalNAcalpha1-3)Gal; Atri; alpha-L-Fucp-(1->2)-[alpha-D-GalpNAc-(1->3)]-D-Galp; alpha-L-fucosyl-(1->2)-[alpha-D-N-acetylgalactosaminyl-(1->3)]-D-galactose; alpha-L-Fuc-(1->2)-[alpha-D-GalNAc-(1->3)]-D-Gal; alpha-D-N-acetylgalactosaminyl-(1->3)-[alpha-L-fucosyl-(1->2)]-D-galactose; alpha-D-GalpNAc-(1->3)-[alpha-L-Fucp-(1->2)]-D-Galp; alpha-D-GalNAc-(1->3)-[alpha-L-Fuc-(1->2)]-D-Gal; alpha-D-GalNAc-(1->3)-[alpha-L-Fuc-(1->2)]-D-Gal; A-tri; 2-acetamido-2-deoxy-alpha-D-galactopyranosyl-(1->3)-[6-deoxy-alpha-L-galactopyranosyl-(1->2)]-D-galactopyranose; 2-(acetylamino)-2-deoxy-alpha-D-galactopyranosyl-(1->3)-[6-deoxy-alpha-L-galactopyranosyl-(1->2)]-D-galactopyranose

> <IUPAC_NAME>
2-acetamido-2-deoxy-alpha-D-galactopyranosyl-(1->3)-[alpha-L-fucopyranosyl-(1->2)]-D-galactopyranose; 2-acetamido-2-deoxy-alpha-D-galactopyranosyl-(1->3)-[6-deoxy-alpha-L-galactopyranosyl-(1->2)]-D-galactose

> <FORMULA>
C20H35NO15

> <MASS>
529.48960

> <MONOISOTOPIC_MASS>
529.20067

> <CHARGE>
0

> <SMILES>
C[C@@H]1O[C@@H](O[C@H]2C(O)O[C@H](CO)[C@H](O)[C@@H]2O[C@H]2O[C@H](CO)[C@H](O)[C@H](O)[C@H]2NC(C)=O)[C@@H](O)[C@H](O)[C@@H]1O

> <INCHI>
InChI=1S/C20H35NO15/c1-5-10(25)14(29)15(30)20(32-5)36-17-16(12(27)8(4-23)33-18(17)31)35-19-9(21-6(2)24)13(28)11(26)7(3-22)34-19/h5,7-20,22-23,25-31H,3-4H2,1-2H3,(H,21,24)/t5-,7+,8+,9+,10+,11-,12-,13+,14+,15-,16-,17+,18?,19+,20-/m0/s1

> <INCHIKEY>
HUMHYXGDUOGHTG-HEZXSMHISA-N

> <BEILSTEIN_REGISTRY_NUMBER>
6026899

> <REAXYS_REGISTRY_NUMBER>
6026899

> <PUBMED_CITATION>
1373469; 15864747; 16133833; 17991151; 2713870; 7688662; 19913595; 17991151

$$$$

Marvin  12030712002D          

 13 13  0  0  0  0            999 V2000
    0.7145    0.4125    0.0000 C   0  0  0  0  0  0  0  0  0  0  0  0
    0.0000    0.8250    0.0000 C   0  0  0  0  0  0  0  0  0  0  0  0
    0.7145   -0.4125    0.0000 C   0  0  0  0  0  0  0  0  0  0  0  0
    0.0000   -0.8250    0.0000 C   0  0  0  0  0  0  0  0  0  0  0  0
   -0.7145    0.4125    0.0000 C   0  0  0  0  0  0  0  0  0  0  0  0
   -0.7145   -0.4125    0.0000 C   0  0  0  0  0  0  0  0  0  0  0  0
    2.8579    0.8250    0.0000 C   0  0  0  0  0  0  0  0  0  0  0  0
    1.4289    0.8250    0.0000 C   0  0  0  0  0  0  0  0  0  0  0  0
    3.5724    0.4125    0.0000 O   0  0  0  0  0  0  0  0  0  0  0  0
    2.8579    1.6500    0.0000 O   0  0  0  0  0  0  0  0  0  0  0  0
   -1.4289   -0.8250    0.0000 O   0  0  0  0  0  0  0  0  0  0  0  0
    2.1434    0.4125    0.0000 C   0  0  0  0  0  0  0  0  0  0  0  0
    2.1434   -0.4125    0.0000 H   0  0  0  0  0  0  0  0  0  0  0  0
  1  8  1  0  0  0  0
  2  1  2  0  0  0  0
  3  1  1  0  0  0  0
  4  3  2  0  0  0  0
  5  2  1  0  0  0  0
  6  4  1  0  0  0  0
  6  5  2  0  0  0  0
 11  6  1  0  0  0  0
 12  7  1  0  0  0  0
 10  7  2  0  0  0  0
  9  7  1  0  0  0  0
  8 12  2  0  0  0  0
 12 13  1  4  0  0  0
M  END
> <ID>
CHEBI:36090

> <NAME>
4-coumaric acid

> <DEFINITION>
A coumaric acid in which the hydroxy substituent is located at C-4 of the phenyl ring.

> <STAR>
3

> <SECONDARY_ID>
CHEBI:20348; CHEBI:20405

> <SYNONYM>
para-coumaric acid; p-hydroxyphenylacrylic acid; p-hydroxycinnamic acid; p-coumaric acid; beta-[4-hydroxyphenyl]acrylic acid; 4-hydroxycinnamic acid; 4-coumaric acid; 4'-hydroxycinnamic acid; 3-(4-hydroxyphenyl)acrylic acid; 3-(4-hydroxyphenyl)-2-propenoic acid

> <IUPAC_NAME>
3-(4-hydroxyphenyl)prop-2-enoic acid

> <FORMULA>
C9H8O3

> <MASS>
164.15802

> <MONOISOTOPIC_MASS>
164.04734

> <CHARGE>
0

> <SMILES>
[H]C(=Cc1ccc(O)cc1)C(O)=O

> <INCHI>
InChI=1S/C9H8O3/c10-8-4-1-7(2-5-8)3-6-9(11)12/h1-6,10H,(H,11,12)

> <INCHIKEY>
NGSWKAQJJWESNS-UHFFFAOYSA-N

> <BEILSTEIN_REGISTRY_NUMBER>
2207381

> <CAS_REGISTRY_NUMBER>
7400-08-0

> <CHEMIDPLUS>
7400-08-0

> <NIST_CHEMISTRY_WEBBOOK>
7400-08-0

> <WIKIPEDIA_ACCESSION>
4-coumaric_acid

> <PUBMED_CITATION>
11684179; 19089825; 19930809; 22447332; 22585412; 22923003; 23178520; 23420453; 23485470; 23669407; 23684599; 23810795; 23857900; 23892112; 24927550; 7285584

$$$$

Marvin  07100610482D          

 23 24  0  0  1  0            999 V2000
    0.0000    2.4750    0.0000 C   0  0  1  0  0  0  0  0  0  0  0  0
    0.7145    2.0625    0.0000 C   0  0  1  0  0  0  0  0  0  0  0  0
   -0.7145    2.0625    0.0000 O   0  0  0  0  0  0  0  0  0  0  0  0
    0.7145    1.2375    0.0000 C   0  0  2  0  0  0  0  0  0  0  0  0
   -0.7145    1.2375    0.0000 C   0  0  1  0  0  0  0  0  0  0  0  0
    0.0000    0.8250    0.0000 C   0  0  1  0  0  0  0  0  0  0  0  0
    0.0000    3.3000    0.0000 O   0  0  0  0  0  0  0  0  0  0  0  0
    1.4289    2.4750    0.0000 O   0  0  0  0  0  0  0  0  0  0  0  0
    1.4289    0.8250    0.0000 O   0  0  0  0  0  0  0  0  0  0  0  0
    0.0000    0.0000    0.0000 O   0  0  0  0  0  0  0  0  0  0  0  0
   -1.4290    0.8250    0.0000 C   0  0  0  0  0  0  0  0  0  0  0  0
   -2.1434    1.2375    0.0000 O   0  0  0  0  0  0  0  0  0  0  0  0
   -0.7145   -0.4125    0.0000 C   0  0  1  0  0  0  0  0  0  0  0  0
   -0.7145   -1.2375    0.0000 C   0  0  1  0  0  0  0  0  0  0  0  0
   -1.4290    0.0000    0.0000 O   0  0  0  0  0  0  0  0  0  0  0  0
   -1.4290   -1.6500    0.0000 C   0  0  2  0  0  0  0  0  0  0  0  0
   -2.1434   -0.4125    0.0000 C   0  0  1  0  0  0  0  0  0  0  0  0
   -2.1434   -1.2375    0.0000 C   0  0  2  0  0  0  0  0  0  0  0  0
    0.0000   -1.6500    0.0000 O   0  0  0  0  0  0  0  0  0  0  0  0
   -1.4290   -2.4750    0.0000 O   0  0  0  0  0  0  0  0  0  0  0  0
   -2.8579   -1.6500    0.0000 O   0  0  0  0  0  0  0  0  0  0  0  0
   -2.8579    0.0000    0.0000 C   0  0  0  0  0  0  0  0  0  0  0  0
   -3.5724   -0.4125    0.0000 O   0  0  0  0  0  0  0  0  0  0  0  0
  1  2  1  0  0  0  0
  1  3  1  0  0  0  0
  1  7  1  1  0  0  0
  2  4  1  0  0  0  0
  2  8  1  6  0  0  0
  3  5  1  0  0  0  0
  4  6  1  0  0  0  0
  4  9  1  1  0  0  0
  5  6  1  0  0  0  0
  5 11  1  1  0  0  0
  6 10  1  6  0  0  0
 12 11  1  0  0  0  0
 13 14  1  0  0  0  0
 13 15  1  0  0  0  0
 13 10  1  1  0  0  0
 14 16  1  0  0  0  0
 14 19  1  6  0  0  0
 15 17  1  0  0  0  0
 16 18  1  0  0  0  0
 16 20  1  1  0  0  0
 17 18  1  0  0  0  0
 17 22  1  1  0  0  0
 18 21  1  1  0  0  0
 22 23  1  0  0  0  0
M  END
> <ID>
CHEBI:36218

> <NAME>
beta-lactose

> <DEFINITION>
The β-anomer of lactose.

> <STAR>
3

> <SECONDARY_ID>
CHEBI:35463; CHEBI:43665; CHEBI:10428; CHEBI:22846

> <SYNONYM>
LACTOSE; Galbeta1-4Glcbeta; Galb1-4Glcb; beta-lactose; beta-Lactose; beta-D-Lactose; beta-D-Galp-(1->4)-beta-D-Glcp; beta-D-galactopyranosyl-(1->4)-beta-D-glucose; 4-O-beta-D-galactopyranosyl-beta-D-glucopyranose

> <IUPAC_NAME>
beta-D-galactopyranosyl-(1->4)-beta-D-glucopyranose

> <FORMULA>
C12H22O11

> <MASS>
342.29648

> <MONOISOTOPIC_MASS>
342.11621

> <CHARGE>
0

> <SMILES>
OC[C@H]1O[C@@H](O[C@@H]2[C@@H](CO)O[C@@H](O)[C@H](O)[C@H]2O)[C@H](O)[C@@H](O)[C@H]1O

> <INCHI>
InChI=1S/C12H22O11/c13-1-3-5(15)6(16)9(19)12(22-3)23-10-4(2-14)21-11(20)8(18)7(10)17/h3-20H,1-2H2/t3-,4-,5+,6+,7-,8-,9-,10-,11-,12+/m1/s1

> <INCHIKEY>
GUBGYTABKSRVRQ-DCSYEGIMSA-N

> <BEILSTEIN_REGISTRY_NUMBER>
90841

> <CAS_REGISTRY_NUMBER>
5965-66-2

> <GMELIN_REGISTRY_NUMBER>
342369

> <REAXYS_REGISTRY_NUMBER>
90841

> <CHEMIDPLUS>
5965-66-2

> <HMDB_ACCESSION>
HMDB0041627

> <KEGG_COMPOUND_ACCESSION>
C01970

> <METACYC_ACCESSION>
CPD-15971

> <NIST_CHEMISTRY_WEBBOOK>
5965-66-2

> <PDBECHEM_ACCESSION>
LAT

> <WIKIPEDIA_ACCESSION>
Lactose

> <PUBMED_CITATION>
12985330; 14602193; 17755819; 19443021; 19895454; 25568069; 31537530; 3754827; 5906151; 5967700

$$$$

Marvin  08211308362D          

 22 23  0  0  0  0            999 V2000
   18.6035  -55.7680    0.0000 N   0  0  0  0  0  0  0  0  0  0  0  0
   19.7552  -55.1030    0.0000 C   0  0  0  0  0  0  0  0  0  0  0  0
   17.4517  -53.7730    0.0000 C   0  0  0  0  0  0  0  0  0  0  0  0
   18.6035  -53.1080    0.0000 C   0  0  0  0  0  0  0  0  0  0  0  0
   17.4517  -55.1030    0.0000 C   0  0  0  0  0  0  0  0  0  0  0  0
   16.2998  -55.7680    0.0000 C   0  0  0  0  0  0  0  0  0  0  0  0
   16.2998  -53.1080    0.0000 C   0  0  0  0  0  0  0  0  0  0  0  0
   15.1482  -55.1030    0.0000 C   0  0  0  0  0  0  0  0  0  0  0  0
   19.7552  -53.7730    0.0000 C   0  0  0  0  0  0  0  0  0  0  0  0
   15.1482  -53.7730    0.0000 C   0  0  0  0  0  0  0  0  0  0  0  0
   13.9964  -55.7680    0.0000 Cl  0  0  0  0  0  0  0  0  0  0  0  0
   18.6035  -51.7781    0.0000 N   0  0  0  0  0  0  0  0  0  0  0  0
   12.8447  -51.1131    0.0000 N   0  0  0  0  0  0  0  0  0  0  0  0
   17.4518  -51.1131    0.0000 C   0  0  0  0  0  0  0  0  0  0  0  0
   15.1482  -51.1131    0.0000 C   0  0  0  0  0  0  0  0  0  0  0  0
   13.9964  -51.7781    0.0000 C   0  0  0  0  0  0  0  0  0  0  0  0
   12.8447  -49.7831    0.0000 C   0  0  0  0  0  0  0  0  0  0  0  0
   11.6929  -51.7781    0.0000 C   0  0  0  0  0  0  0  0  0  0  0  0
   16.3000  -51.7781    0.0000 C   0  0  0  0  0  0  0  0  0  0  0  0
   17.4518  -49.7831    0.0000 C   0  0  0  0  0  0  0  0  0  0  0  0
   11.6929  -49.1182    0.0000 C   0  0  0  0  0  0  0  0  0  0  0  0
   10.5410  -51.1131    0.0000 C   0  0  0  0  0  0  0  0  0  0  0  0
  1  2  2  0  0  0  0
  3  4  1  0  0  0  0
 12  4  1  0  0  0  0
  5  1  1  0  0  0  0
  3  5  1  0  0  0  0
  6  5  2  0  0  0  0
  3  7  2  0  0  0  0
  8  6  1  0  0  0  0
 11  8  1  0  0  0  0
  9  4  2  0  0  0  0
  2  9  1  0  0  0  0
 10  8  2  0  0  0  0
  7 10  1  0  0  0  0
 14 12  1  0  0  0  0
 16 13  1  0  0  0  0
 17 13  1  0  0  0  0
 18 13  1  0  0  0  0
 19 14  1  0  0  0  0
 20 14  1  0  0  0  0
 19 15  1  0  0  0  0
 16 15  1  0  0  0  0
 21 17  1  0  0  0  0
 22 18  1  0  0  0  0
M  END
> <ID>
CHEBI:3638

> <NAME>
chloroquine

> <DEFINITION>
An aminoquinoline that is quinoline which is substituted at position 4 by a [5-(diethylamino)pentan-2-yl]amino group at at position 7 by chlorine. It is used for the treatment of malaria, hepatic amoebiasis, lupus erythematosus, light-sensitive skin eruptions, and rheumatoid arthritis.

> <STAR>
3

> <SYNONYM>
N(4)-(7-chloro-4-quinolinyl)-N(1),N(1)-diethyl-1,4-pentanediamine; Chloroquine; Chlorochin

> <IUPAC_NAME>
N(4)-(7-chloroquinolin-4-yl)-N(1),N(1)-diethylpentane-1,4-diamine

> <INN>
cloroquina; chloroquinum; chloroquine; chloroquine

> <BRAND_NAME>
Sanoquin; Reumachlor; Resoquine; Nivaquine B; Capquin; Bemaphate; Artrichin; Aralen

> <FORMULA>
C18H26ClN3

> <MASS>
319.87200

> <MONOISOTOPIC_MASS>
319.18153

> <CHARGE>
0

> <SMILES>
CCN(CC)CCCC(C)Nc1ccnc2cc(Cl)ccc12

> <INCHI>
InChI=1S/C18H26ClN3/c1-4-22(5-2)12-6-7-14(3)21-17-10-11-20-18-13-15(19)8-9-16(17)18/h8-11,13-14H,4-7,12H2,1-3H3,(H,20,21)

> <INCHIKEY>
WHTVZRBIWZFKQO-UHFFFAOYSA-N

> <BEILSTEIN_REGISTRY_NUMBER>
482809

> <CAS_REGISTRY_NUMBER>
54-05-7

> <GMELIN_REGISTRY_NUMBER>
781126

> <REAXYS_REGISTRY_NUMBER>
482809

> <CHEMIDPLUS>
54-05-7

> <DRUGBANK_ACCESSION>
DB00608

> <HMDB_ACCESSION>
HMDB0014746

> <KEGG_COMPOUND_ACCESSION>
C07625

> <KEGG_DRUG_ACCESSION>
D02366

> <LINCS_ACCESSION>
LSM-1901

> <NIST_CHEMISTRY_WEBBOOK>
54-05-7

> <PDBECHEM_ACCESSION>
CLQ

> <WIKIPEDIA_ACCESSION>
Chloroquine

> <PUBMED_CITATION>
11198399; 17594118; 18052874; 19426658; 23288916; 23580861; 23635029; 23644906; 23706562; 23852712; 23891850; 25285162

$$$$

Marvin  03270714172D          

 21 23  0  0  0  0            999 V2000
    1.4289   -0.8250    0.0000 C   0  0  0  0  0  0  0  0  0  0  0  0
    0.7145   -0.4125    0.0000 C   0  0  0  0  0  0  0  0  0  0  0  0
    0.0000    0.8250    0.0000 N   0  0  0  0  0  0  0  0  0  0  0  0
    0.7145    0.4125    0.0000 C   0  0  0  0  0  0  0  0  0  0  0  0
   -0.7145    0.4125    0.0000 C   0  0  0  0  0  0  0  0  0  0  0  0
    1.4289    0.8250    0.0000 C   0  0  0  0  0  0  0  0  0  0  0  0
   -0.7145   -0.4125    0.0000 C   0  0  0  0  0  0  0  0  0  0  0  0
   -1.4289    0.8250    0.0000 C   0  0  0  0  0  0  0  0  0  0  0  0
   -0.0000   -0.8250    0.0000 S   0  0  0  0  0  0  0  0  0  0  0  0
    2.1434    0.4125    0.0000 C   0  0  0  0  0  0  0  0  0  0  0  0
   -1.4289   -0.8250    0.0000 C   0  0  0  0  0  0  0  0  0  0  0  0
   -2.1434    0.4125    0.0000 C   0  0  0  0  0  0  0  0  0  0  0  0
    2.1434   -0.4125    0.0000 C   0  0  0  0  0  0  0  0  0  0  0  0
   -2.1434   -0.4125    0.0000 C   0  0  0  0  0  0  0  0  0  0  0  0
   -0.0000    1.6500    0.0000 C   0  0  0  0  0  0  0  0  0  0  0  0
    0.7145    2.0625    0.0000 C   0  0  0  0  0  0  0  0  0  0  0  0
    0.7145    2.8875    0.0000 C   0  0  0  0  0  0  0  0  0  0  0  0
    2.8579    0.8250    0.0000 Cl  0  0  0  0  0  0  0  0  0  0  0  0
    1.4290    3.3000    0.0000 N   0  0  0  0  0  0  0  0  0  0  0  0
    2.1434    2.8875    0.0000 C   0  0  0  0  0  0  0  0  0  0  0  0
    1.4290    4.1250    0.0000 C   0  0  0  0  0  0  0  0  0  0  0  0
  2  1  2  0  0  0  0
  3 15  1  0  0  0  0
  4  2  1  0  0  0  0
  3  4  1  0  0  0  0
  3  5  1  0  0  0  0
  4  6  2  0  0  0  0
  5  7  1  0  0  0  0
  5  8  2  0  0  0  0
  2  9  1  0  0  0  0
  7  9  1  0  0  0  0
  6 10  1  0  0  0  0
 10 18  1  0  0  0  0
  7 11  2  0  0  0  0
  8 12  1  0  0  0  0
 10 13  2  0  0  0  0
  1 13  1  0  0  0  0
 12 14  2  0  0  0  0
 11 14  1  0  0  0  0
 15 16  1  0  0  0  0
 16 17  1  0  0  0  0
 17 19  1  0  0  0  0
 19 20  1  0  0  0  0
 19 21  1  0  0  0  0
M  END
> <ID>
CHEBI:3647

> <NAME>
chlorpromazine

> <DEFINITION>
A substituted phenothiazine in which the ring nitrogen at position 10 is attached to C-3 of an N,N-dimethylpropanamine moiety.

> <STAR>
3

> <SYNONYM>
N-(3-dimethylaminopropyl)-3-chlorophenothiazine; CPZ; Chlorpromazine; 3-(2-chlorophenothiazin-10-yl)-N,N-dimethyl-propan-1-amine; 3-(2-chloro-10H-phenothiazin-10-yl)-N,N-dimethyl-1-propanamine

> <IUPAC_NAME>
3-(2-chloro-10H-phenothiazin-10-yl)-N,N-dimethylpropan-1-amine

> <INN>
clorpromazina; chlorpromazinum; chlorpromazine

> <BRAND_NAME>
Thorazine; Largactil; Contomin; Chlorpromados; Chloropromazine; Chlorderazin; Aminazine

> <FORMULA>
C17H19ClN2S

> <MASS>
318.86400

> <MONOISOTOPIC_MASS>
318.09575

> <CHARGE>
0

> <SMILES>
CN(C)CCCN1c2ccccc2Sc2ccc(Cl)cc12

> <INCHI>
InChI=1S/C17H19ClN2S/c1-19(2)10-5-11-20-14-6-3-4-7-16(14)21-17-9-8-13(18)12-15(17)20/h3-4,6-9,12H,5,10-11H2,1-2H3

> <INCHIKEY>
ZPEIMTDSQAKGNT-UHFFFAOYSA-N

> <BEILSTEIN_REGISTRY_NUMBER>
289793

> <CAS_REGISTRY_NUMBER>
50-53-3

> <REAXYS_REGISTRY_NUMBER>
289793

> <CHEMIDPLUS>
50-53-3

> <DRUGBANK_ACCESSION>
DB00477

> <HMDB_ACCESSION>
HMDB0014620

> <KEGG_COMPOUND_ACCESSION>
C06906

> <KEGG_DRUG_ACCESSION>
D00270

> <LINCS_ACCESSION>
LSM-4017

> <NIST_CHEMISTRY_WEBBOOK>
50-53-3

> <PDBECHEM_ACCESSION>
Z80

> <WIKIPEDIA_ACCESSION>
Chlorpromazine

> <PUBMED_CITATION>
14354584; 14404586; 15170372; 1650428; 16653219; 20825390; 2427628; 7192992

$$$$

Ketcher 06211715212D 1   1.00000     0.00000     0

 35 39  0     1  0            999 V2000
   21.6697   -6.4631    0.0000 O   0  0  0  0  0  0  0  0  0  0  0  0
   20.8024   -5.9623    0.0000 C   0  0  0  0  0  0  0  0  0  0  0  0
   19.9352   -6.4630    0.0000 C   0  0  0  0  0  0  0  0  0  0  0  0
   20.8024   -4.9608    0.0000 O   0  0  0  0  0  0  0  0  0  0  0  0
   19.0678   -5.9623    0.0000 C   0  0  0  0  0  0  0  0  0  0  0  0
   19.9352   -4.4601    0.0000 C   0  0  0  0  0  0  0  0  0  0  0  0
   19.0678   -4.9607    0.0000 C   0  0  0  0  0  0  0  0  0  0  0  0
   19.9351   -7.4645    0.0000 O   0  0  0  0  0  0  0  0  0  0  0  0
   18.2006   -6.4628    0.0000 O   0  0  0  0  0  0  0  0  0  0  0  0
   18.2006   -4.4601    0.0000 O   0  0  0  0  0  0  0  0  0  0  0  0
   19.9352   -3.4587    0.0000 C   0  0  0  0  0  0  0  0  0  0  0  0
   19.0680   -2.9581    0.0000 O   0  0  0  0  0  0  0  0  0  0  0  0
   20.7710   -2.9879    0.0000 O   0  0  0  0  0  0  0  0  0  0  0  0
   27.8224   -4.7707    0.0000 C   0  0  0  0  0  0  0  0  0  0  0  0
   26.0037   -5.9629    0.0000 C   0  0  0  0  0  0  0  0  0  0  0  0
   27.8224   -3.1511    0.0000 C   0  0  0  0  0  0  0  0  0  0  0  0
   26.0037   -2.9601    0.0000 C   0  0  0  0  0  0  0  0  0  0  0  0
   28.4106   -3.9610    0.0000 C   0  0  0  0  0  0  0  0  0  0  0  0
   24.2700   -4.9619    0.0000 C   0  0  0  0  0  0  0  0  0  0  0  0
   25.1368   -3.4606    0.0000 C   0  0  0  0  0  0  0  0  0  0  0  0
   25.1368   -6.4632    0.0000 C   0  0  0  0  0  0  0  0  0  0  0  0
   28.1317   -2.1992    0.0000 O   0  0  0  0  0  0  0  0  0  0  0  0
   24.2700   -5.9629    0.0000 C   0  0  0  0  0  0  0  0  0  0  0  0
   23.4032   -4.4614    0.0000 C   0  0  0  0  0  0  0  0  0  0  0  0
   23.4032   -6.4632    0.0000 C   0  0  0  0  0  0  0  0  0  0  0  0
   22.5364   -4.9619    0.0000 C   0  0  0  0  0  0  0  0  0  0  0  0
   22.5364   -5.9629    0.0000 C   0  0  0  0  0  0  0  0  0  0  0  0
   26.0037   -4.9619    0.0000 C   0  0  0  0  0  0  0  0  0  0  0  0
   26.0037   -3.9610    0.0000 H   0  0  0  0  0  0  0  0  0  0  0  0
   25.1368   -4.4614    0.0000 C   0  0  0  0  0  0  0  0  0  0  0  0
   25.1368   -5.4623    0.0000 H   0  0  0  0  0  0  0  0  0  0  0  0
   26.8704   -3.4606    0.0000 C   0  0  0  0  0  0  0  0  0  0  0  0
   26.8704   -2.4596    0.0000 C   0  0  0  0  0  0  0  0  0  0  0  0
   26.8704   -4.4614    0.0000 C   0  0  0  0  0  0  0  0  0  0  0  0
   26.8704   -5.4623    0.0000 H   0  0  0  0  0  0  0  0  0  0  0  0
  2  3  1  0     0  0
  2  4  1  0     0  0
  3  5  1  0     0  0
  4  6  1  0     0  0
  5  7  1  0     0  0
  6  7  1  0     0  0
  2  1  1  1     0  0
  3  8  1  6     0  0
  5  9  1  1     0  0
  7 10  1  6     0  0
  6 11  1  1     0  0
 12 11  1  0     0  0
 13 11  2  0     0  0
 34 28  1  0     0  0
 34 32  1  0     0  0
 34 14  1  0     0  0
 28 30  1  0     0  0
 28 15  1  0     0  0
 32 16  1  0     0  0
 32 17  1  0     0  0
 18 14  1  0     0  0
 30 19  1  0     0  0
 30 20  1  0     0  0
 15 21  1  0     0  0
 16 22  1  1     0  0
 19 23  2  0     0  0
 19 24  1  0     0  0
 23 25  1  0     0  0
 24 26  2  0     0  0
 25 27  2  0     0  0
 16 18  1  0     0  0
 17 20  1  0     0  0
 21 23  1  0     0  0
 26 27  1  0     0  0
 28 29  1  1     0  0
 30 31  1  6     0  0
 32 33  1  1     0  0
 34 35  1  6     0  0
 27  1  1  0     0  0
M  END
> <ID>
CHEBI:36489

> <NAME>
17beta-estradiol 3-glucosiduronic acid

> <DEFINITION>
A steroid glucosiduronic acid that consists of 17β-estradiol having a β-glucuronyl residue attached at position 3 via a glycosidic linkage.

> <STAR>
3

> <SECONDARY_ID>
CHEBI:23964; CHEBI:4865

> <SYNONYM>
Estradiol-3-glucuronide; Estradiol-17beta 3-glucuronide; 17beta-estradiol 3-glucuronide; 17beta-Estradiol 3-(beta-D-glucuronide)

> <IUPAC_NAME>
17beta-hydroxyestra-1,3,5(10)-trien-3-yl beta-D-glucopyranosiduronic acid

> <FORMULA>
C24H32O8; C24H32O8

> <MASS>
448.507

> <MONOISOTOPIC_MASS>
448.20972

> <CHARGE>
0

> <SMILES>
O([C@H]1[C@@H]([C@H]([C@@H]([C@H](O1)C(O)=O)O)O)O)C2=CC3=C([C@@]4([C@]([C@]5([C@@]([C@@H](O)CC5)(CC4)C)[H])(CC3)[H])[H])C=C2

> <INCHI>
InChI=1S/C24H32O8/c1-24-9-8-14-13-5-3-12(10-11(13)2-4-15(14)16(24)6-7-17(24)25)31-23-20(28)18(26)19(27)21(32-23)22(29)30/h3,5,10,14-21,23,25-28H,2,4,6-9H2,1H3,(H,29,30)/t14-,15-,16+,17+,18+,19+,20-,21+,23-,24+/m1/s1

> <INCHIKEY>
MUOHJTRCBBDUOW-QXYWQCSFSA-N

> <BEILSTEIN_REGISTRY_NUMBER>
1302617

> <CAS_REGISTRY_NUMBER>
15270-30-1

> <REAXYS_REGISTRY_NUMBER>
5658104

> <CHEMIDPLUS>
15270-30-1

> <KEGG_COMPOUND_ACCESSION>
C05503

> <LIPID_MAPS_INSTANCE_ACCESSION>
LMST05010007

> <PUBMED_CITATION>
10365435; 10784423; 11812141; 11878459; 15516735; 15537867; 17612196; 20417221

$$$$

Marvin  09240622432D          

 10 11  0  0  0  0            999 V2000
   -0.7145    0.8250    0.0000 C   0  0  0  0  0  0  0  0  0  0  0  0
   -1.4289    0.4125    0.0000 C   0  0  0  0  0  0  0  0  0  0  0  0
   -1.4289   -0.4125    0.0000 C   0  0  0  0  0  0  0  0  0  0  0  0
   -0.7145   -0.8250    0.0000 C   0  0  0  0  0  0  0  0  0  0  0  0
    0.0000   -0.4125    0.0000 C   0  0  0  0  0  0  0  0  0  0  0  0
    1.4289   -0.4125    0.0000 C   0  0  0  0  0  0  0  0  0  0  0  0
    1.4289    0.4125    0.0000 C   0  0  0  0  0  0  0  0  0  0  0  0
    0.7145    0.8250    0.0000 N   0  0  0  0  0  0  0  0  0  0  0  0
    0.0000    0.4125    0.0000 C   0  0  0  0  0  0  0  0  0  0  0  0
    0.7145   -0.8250    0.0000 N   0  0  0  0  0  0  0  0  0  0  0  0
  1  2  1  0  0  0  0
  1  9  2  0  0  0  0
  2  3  2  0  0  0  0
  3  4  1  0  0  0  0
  4  5  2  0  0  0  0
  5 10  1  0  0  0  0
  5  9  1  0  0  0  0
 10  6  2  0  0  0  0
  6  7  1  0  0  0  0
  7  8  2  0  0  0  0
  8  9  1  0  0  0  0
M  END
> <ID>
CHEBI:36616

> <NAME>
quinoxaline

> <DEFINITION>
A naphthyridine in which the nitrogens are at positions 1 and 4.

> <STAR>
3

> <SYNONYM>
Chinoxalin; benzopyrazine; benzoparadiazine; benzo[a]pyrazine; 1,4-naphthyridine; 1,4-diazanaphthalene; 1,4-benzodiazine

> <IUPAC_NAME>
quinoxaline

> <FORMULA>
C8H6N2

> <MASS>
130.14672

> <MONOISOTOPIC_MASS>
130.05310

> <CHARGE>
0

> <SMILES>
c1ccc2nccnc2c1

> <INCHI>
InChI=1S/C8H6N2/c1-2-4-8-7(3-1)9-5-6-10-8/h1-6H

> <INCHIKEY>
XSCHRSMBECNVNS-UHFFFAOYSA-N

> <BEILSTEIN_REGISTRY_NUMBER>
109351

> <CAS_REGISTRY_NUMBER>
91-19-0

> <GMELIN_REGISTRY_NUMBER>
82755

> <REAXYS_REGISTRY_NUMBER>
109351

> <CHEMIDPLUS>
91-19-0

> <KEGG_COMPOUND_ACCESSION>
C18575

> <NIST_CHEMISTRY_WEBBOOK>
91-19-0

> <WIKIPEDIA_ACCESSION>
Quinoxaline

> <PUBMED_CITATION>
16406213; 24328679; 24476762; 27349448

$$$$

Ketcher 07151614482D 1   1.00000     0.00000     0

 13 13  0     0  0            999 V2000
    2.9108    1.8982    0.0000 O   0  0  0  0  0  0  0  0  0  0  0  0
    2.0849    2.3750    0.0000 C   0  0  0  0  0  0  0  0  0  0  0  0
    1.2589    1.8982    0.0000 C   0  0  0  0  0  0  0  0  0  0  0  0
    1.2591    0.9445    0.0000 C   0  0  0  0  0  0  0  0  0  0  0  0
    2.0849    0.4678    0.0000 C   0  0  0  0  0  0  0  0  0  0  0  0
    2.9108    0.9446    0.0000 C   0  0  0  0  0  0  0  0  0  0  0  0
    2.0847    3.3287    0.0000 C   0  0  0  0  0  0  0  0  0  0  0  0
    1.2589    3.8055    0.0000 O   0  0  0  0  0  0  0  0  0  0  0  0
    3.7366    0.4678    0.0000 O   0  0  0  0  0  0  0  0  0  0  0  0
    2.0850   -0.4858    0.0000 O   0  0  0  0  0  0  0  0  0  0  0  0
    0.4331    2.3750    0.0000 O   0  0  0  0  0  0  0  0  0  0  0  0
   -0.1312    0.8967    0.0000 O   0  0  0  0  0  0  0  0  0  0  0  0
    4.8554    0.4908    0.0000 H   0  0  0  0  0  0  0  0  0  0  0  0
  1  2  1  0     0  0
  1  6  1  0     0  0
  2  3  1  0     0  0
  3  4  1  0     0  0
  4  5  1  0     0  0
  5  6  1  0     0  0
  2  7  1  1     0  0
  7  8  1  0     0  0
  6  9  1  1     0  0
  5 10  1  6     0  0
  3 11  1  6     0  0
  4 12  1  1     0  0
  9 13  1  0     0  0
M  STY  1   1 SRU
M  SLB  1   1   1
M  SCN  1   1 HT 
M  SMT   1 n
M  SAL   1 11   4   3  11   2   7   8   1  10   5   6   9
M  SBL   1  2  12  13
M  SDI   1  4    0.4759    0.1758    0.6520    1.6654
M  SDI   1  4    4.3841    1.2241    4.2080   -0.2655
M  END
> <ID>
CHEBI:37671

> <NAME>
(1->3)-beta-D-glucan

> <DEFINITION>
A β-D-glucan in which the glucose units are connected by (1→3) linkages.

> <STAR>
3

> <SECONDARY_ID>
CHEBI:530; CHEBI:60750; CHEBI:10800; CHEBI:10802; CHEBI:18294; CHEBI:18922

> <SYNONYM>
zymosan; curdlan; callose; beta-1,3-glucan; beta-(1,3)-glucan; 1,3-beta-Glucan; 1,3-beta-D-Glucan; (1,3-beta-D-Glucosyl)n-1; (1,3-beta-D-Glucosyl)n+1; (1,3-beta-D-Glucosyl)n; (1,3-beta-D-glucosyl)(n); (1,3-beta-D-glucosyl)n

> <IUPAC_NAME>
(1->3)-beta-D-glucopyranan

> <FORMULA>
(C6H10O5)n.H2O

> <CHARGE>
0

> <KEGG_COMPOUND_ACCESSION>
C00965

> <KEGG_GLYCAN_ACCESSION>
G10477

> <PUBMED_CITATION>
27562783

$$$$

Marvin  06031009442D          

 29 31  0  0  0  0            999 V2000
    2.8149   -1.9194    0.0000 C   0  0  0  0  0  0  0  0  0  0  0  0
    2.1060   -2.3298    0.0000 N   0  0  0  0  0  0  0  0  0  0  0  0
    2.8149   -1.0986    0.0000 N   0  0  0  0  0  0  0  0  0  0  0  0
    3.5238   -2.3298    0.0000 N   0  0  0  0  0  0  0  0  0  0  0  0
    4.9498   -2.3298    0.0000 C   0  0  0  0  0  0  0  0  0  0  0  0
    4.9498   -3.1507    0.0000 O   0  0  0  0  0  0  0  0  0  0  0  0
    4.2409   -1.9194    0.0000 C   0  0  0  0  0  0  0  0  0  0  0  0
    5.6629   -1.9194    0.0000 O   0  0  0  0  0  0  0  0  0  0  0  0
    2.1060   -3.1548    0.0000 C   0  0  0  0  0  0  0  0  0  0  0  0
    1.3915   -3.5673    0.0000 C   0  0  0  0  0  0  0  0  0  0  0  0
    2.8204   -3.5673    0.0000 C   0  0  0  0  0  0  0  0  0  0  0  0
    0.6770   -3.1548    0.0000 C   0  0  0  0  0  0  0  0  0  0  0  0
   -0.0374   -3.5673    0.0000 C   0  0  0  0  0  0  0  0  0  0  0  0
   -0.0374   -4.3924    0.0000 C   0  0  0  0  0  0  0  0  0  0  0  0
    0.6770   -4.8049    0.0000 C   0  0  0  0  0  0  0  0  0  0  0  0
    1.3915   -4.3924    0.0000 C   0  0  0  0  0  0  0  0  0  0  0  0
    3.5349   -3.1548    0.0000 C   0  0  0  0  0  0  0  0  0  0  0  0
    2.8204   -4.3924    0.0000 C   0  0  0  0  0  0  0  0  0  0  0  0
    3.5349   -4.8049    0.0000 C   0  0  0  0  0  0  0  0  0  0  0  0
    4.2494   -4.3924    0.0000 C   0  0  0  0  0  0  0  0  0  0  0  0
    4.2494   -3.5673    0.0000 C   0  0  0  0  0  0  0  0  0  0  0  0
    2.1004   -0.6861    0.0000 C   0  0  0  0  0  0  0  0  0  0  0  0
    1.3859    0.5514    0.0000 C   0  0  0  0  0  0  0  0  0  0  0  0
    0.6715    0.1389    0.0000 C   0  0  0  0  0  0  0  0  0  0  0  0
    0.6715   -0.6861    0.0000 C   0  0  0  0  0  0  0  0  0  0  0  0
    1.3859   -1.0986    0.0000 C   0  0  0  0  0  0  0  0  0  0  0  0
    2.1004    0.1389    0.0000 C   0  0  0  0  0  0  0  0  0  0  0  0
   -0.0430    0.5514    0.0000 C   0  0  0  0  0  0  0  0  0  0  0  0
   -0.7575    0.9639    0.0000 N   0  0  0  0  0  0  0  0  0  0  0  0
  2  1  1  0  0  0  0
  3  1  1  0  0  0  0
  4  1  2  0  0  0  0
  5  7  1  0  0  0  0
  6  5  2  0  0  0  0
  7  4  1  0  0  0  0
  8  5  1  0  0  0  0
  2  9  1  0  0  0  0
  9 10  1  0  0  0  0
  9 11  1  0  0  0  0
 16 10  2  0  0  0  0
 12 10  1  0  0  0  0
 12 13  2  0  0  0  0
 13 14  1  0  0  0  0
 14 15  2  0  0  0  0
 15 16  1  0  0  0  0
 17 11  2  0  0  0  0
 11 18  1  0  0  0  0
 18 19  2  0  0  0  0
 19 20  1  0  0  0  0
 20 21  2  0  0  0  0
 17 21  1  0  0  0  0
  3 22  1  0  0  0  0
 26 22  2  0  0  0  0
 22 27  1  0  0  0  0
 23 24  1  0  0  0  0
 24 25  2  0  0  0  0
 25 26  1  0  0  0  0
 23 27  2  0  0  0  0
 24 28  1  0  0  0  0
 28 29  3  0  0  0  0
M  END
> <ID>
CHEBI:385425

> <NAME>
[N-(4-cyanophenyl)-N'-(diphenylmethyl)guanidine]acetic acid

> <DEFINITION>
A trisubstituted guanidine, carrying 4-cyanophenyl, diphenylmethyl and carboxymethyl substituents, which is known to act as a highly potent sweetening agent.

> <STAR>
3

> <SECONDARY_ID>
CHEBI:42679

> <SYNONYM>
NC-174; N-(P-CYANOPHENYL)-N'-DIPHENYLMETHYL-GUANIDINE-ACETIC ACID; N-(p-Cyanophenyl)-N'-(diphenylmethyl)-N''-(carboxymethyl)guanidine; N-(4-Cyanophenyl)-N'-(diphenylmethyl)guanidineacetic acid; CP-Dpm-GA; 2-[[(benzhydrylamino)-[(4-cyanophenyl)amino]methylidene]amino]ethanoic acid

> <IUPAC_NAME>
(Z)-N-{[(4-cyanophenyl)amino][(diphenylmethyl)amino]methylidene}glycine

> <FORMULA>
C23H20N4O2

> <MASS>
384.43050

> <MONOISOTOPIC_MASS>
384.15863

> <CHARGE>
0

> <SMILES>
OC(=O)C\N=C(\NC(c1ccccc1)c1ccccc1)Nc1ccc(cc1)C#N

> <INCHI>
InChI=1S/C23H20N4O2/c24-15-17-11-13-20(14-12-17)26-23(25-16-21(28)29)27-22(18-7-3-1-4-8-18)19-9-5-2-6-10-19/h1-14,22H,16H2,(H,28,29)(H2,25,26,27)

> <INCHIKEY>
KGHMYJFHUHFOGL-UHFFFAOYSA-N

> <CAS_REGISTRY_NUMBER>
138460-25-0

> <REAXYS_REGISTRY_NUMBER>
25965952

> <CHEMIDPLUS>
138460-25-0

> <DRUGBANK_ACCESSION>
DB07816

> <PDB_ACCESSION>
2CGR

> <PDBECHEM_ACCESSION>
GAS

> <PUBMED_CITATION>
10993728; 7893280; 9871559

$$$$

Marvin  04301214002D          

 11 11  0  0  0  0            999 V2000
   14.2749   -6.6396    0.0000 C   0  0  0  0  0  0  0  0  0  0  0  0
   14.9894   -6.2272    0.0000 C   0  0  0  0  0  0  0  0  0  0  0  0
   15.7038   -6.6396    0.0000 C   0  0  0  0  0  0  0  0  0  0  0  0
   16.4183   -6.2272    0.0000 C   0  0  0  0  0  0  0  0  0  0  0  0
   16.4183   -5.4020    0.0000 O   0  0  0  0  0  0  0  0  0  0  0  0
   17.1327   -6.6395    0.0000 O   0  0  0  0  0  0  0  0  0  0  0  0
   13.5604   -6.2271    0.0000 C   0  0  0  0  0  0  0  0  0  0  0  0
   12.8068   -6.5627    0.0000 S   0  0  0  0  0  0  0  0  0  0  0  0
   13.4742   -5.4066    0.0000 C   0  0  0  0  0  0  0  0  0  0  0  0
   12.2547   -5.9496    0.0000 C   0  0  0  0  0  0  0  0  0  0  0  0
   12.6671   -5.2350    0.0000 C   0  0  0  0  0  0  0  0  0  0  0  0
  1  2  1  0  0  0  0
  2  3  1  0  0  0  0
  3  4  1  0  0  0  0
  4  5  2  0  0  0  0
  4  6  1  0  0  0  0
  8  7  1  0  0  0  0
  9  7  2  0  0  0  0
 10  8  1  0  0  0  0
 11  9  1  0  0  0  0
 11 10  2  0  0  0  0
  1  7  1  0  0  0  0
M  END
> <ID>
CHEBI:40114

> <NAME>
4-(2-thienyl)butyric acid

> <DEFINITION>
A monocarboxylic acid that is butyric acid bearing a 2-thienyl group at position 4.

> <STAR>
3

> <SYNONYM>
gamma-(alpha-thienyl)butyricacid; 4-thiophen-2-ylbutanoic acid; 2-Thiophenebutyric acid; 2-Thiophenebutanoic acid

> <IUPAC_NAME>
4-(2-thienyl)butanoic acid

> <FORMULA>
C8H10O2S

> <MASS>
170.22900

> <MONOISOTOPIC_MASS>
170.04015

> <CHARGE>
0

> <SMILES>
OC(=O)CCCc1cccs1

> <INCHI>
InChI=1S/C8H10O2S/c9-8(10)5-1-3-7-4-2-6-11-7/h2,4,6H,1,3,5H2,(H,9,10)

> <INCHIKEY>
VYTXLSQVYGNWLV-UHFFFAOYSA-N

> <CAS_REGISTRY_NUMBER>
4653-11-6

> <REAXYS_REGISTRY_NUMBER>
127982

> <CHEMIDPLUS>
4653-11-6

> <DRUGBANK_ACCESSION>
DB02434

> <NIST_CHEMISTRY_WEBBOOK>
4653-11-6

> <PDBECHEM_ACCESSION>
4TB

> <PUBMED_CITATION>
11712905

$$$$

Marvin  01201111532D          

 20 22  0  0  1  0            999 V2000
    0.9372   -1.0517    0.0000 C   0  0  0  0  0  0  0  0  0  0  0  0
    0.2227   -1.4642    0.0000 N   0  0  0  0  0  0  0  0  0  0  0  0
    0.9371   -2.7017    0.0000 N   0  0  0  0  0  0  0  0  0  0  0  0
    1.6516   -2.2892    0.0000 C   0  0  0  0  0  0  0  0  0  0  0  0
    1.6516   -1.4642    0.0000 C   0  0  0  0  0  0  0  0  0  0  0  0
    2.4362   -1.2093    0.0000 N   0  0  0  0  0  0  0  0  0  0  0  0
    2.9212   -1.8768    0.0000 C   0  0  0  0  0  0  0  0  0  0  0  0
    2.4362   -2.5442    0.0000 N   0  0  0  0  0  0  0  0  0  0  0  0
    2.6912   -3.3290    0.0000 C   0  0  2  0  0  0  0  0  0  0  0  0
    2.2062   -3.9963    0.0000 O   0  0  0  0  0  0  0  0  0  0  0  0
    2.6911   -4.6639    0.0000 C   0  0  2  0  0  0  0  0  0  0  0  0
    2.4361   -5.4485    0.0000 C   0  0  0  0  0  0  0  0  0  0  0  0
    2.9882   -6.0616    0.0000 O   0  0  0  0  0  0  0  0  0  0  0  0
    3.4757   -4.4089    0.0000 C   0  0  1  0  0  0  0  0  0  0  0  0
    4.1432   -4.8939    0.0000 O   0  0  0  0  0  0  0  0  0  0  0  0
    3.4758   -3.5839    0.0000 C   0  0  0  0  0  0  0  0  0  0  0  0
    0.2226   -2.2892    0.0000 C   0  0  0  0  0  0  0  0  0  0  0  0
   -0.4919   -2.7017    0.0000 N   0  0  0  0  0  0  0  0  0  0  0  0
    0.9372   -0.2267    0.0000 O   0  0  0  0  0  0  0  0  0  0  0  0
    3.7462   -1.8768    0.0000 O   0  0  0  0  0  0  0  0  0  0  0  0
 19  1  2  0  0  0  0
  1  2  1  0  0  0  0
  1  5  1  0  0  0  0
  2 17  1  0  0  0  0
 17  3  2  0  0  0  0
  3  4  1  0  0  0  0
  4  5  2  0  0  0  0
  4  8  1  0  0  0  0
  5  6  1  0  0  0  0
  6  7  2  0  0  0  0
  7  8  1  0  0  0  0
  9  8  1  1  0  0  0
  9 10  1  0  0  0  0
  9 16  1  0  0  0  0
 10 11  1  0  0  0  0
 11 12  1  1  0  0  0
 11 14  1  0  0  0  0
 12 13  1  0  0  0  0
 14 15  1  6  0  0  0
 14 16  1  0  0  0  0
 17 18  1  0  0  0  0
  7 20  1  0  0  0  0
M  END
> <ID>
CHEBI:40304

> <NAME>
8-hydroxy-2'-deoxyguanosine

> <DEFINITION>
Guanosine substituted at the purine 8-position by a hydroxy group. It is used as a biomarker of oxidative DNA damage.

> <STAR>
3

> <SECONDARY_ID>
CHEBI:61068

> <SYNONYM>
8-Oxoguanosine; 8-Oxo-dG; 8-Oxo-7-hydrodeoxyguanosine; 8-Oxo-7,8-dihydro-2'-deoxyguanosine; 8-oxo-2'-dG; 8-Oxo-2'-deoxyguanine; 8-OHdG; 8-Hydroxydeoxyguanosine; 8-HYDROXY-2'-DEOXYGUANOSINE; 7,8-Dihydro-2'-deoxy-8-oxoguanosine

> <IUPAC_NAME>
2'-deoxy-8-oxoguanosine; 2'-deoxy-8-hydroxyguanosine

> <FORMULA>
C10H13N5O5

> <MASS>
283.24070

> <MONOISOTOPIC_MASS>
283.09167

> <CHARGE>
0

> <SMILES>
Nc1nc2n([C@H]3C[C@H](O)[C@@H](CO)O3)c(O)nc2c(=O)[nH]1

> <INCHI>
InChI=1S/C10H13N5O5/c11-9-13-7-6(8(18)14-9)12-10(19)15(7)5-1-3(17)4(2-16)20-5/h3-5,16-17H,1-2H2,(H,12,19)(H3,11,13,14,18)/t3-,4+,5+/m0/s1

> <INCHIKEY>
HCAJQHYUCKICQH-VPENINKCSA-N

> <BEILSTEIN_REGISTRY_NUMBER>
5994628

> <CAS_REGISTRY_NUMBER>
88847-89-6

> <REAXYS_REGISTRY_NUMBER>
4882818

> <CHEMIDPLUS>
88847-89-6

> <DRUGBANK_ACCESSION>
DB02502

> <PDBECHEM_ACCESSION>
8HG

> <WIKIPEDIA_ACCESSION>
8-Oxo-2'-deoxyguanosine

> <PUBMED_CITATION>
20081197; 11559029; 9778313

$$$$

Marvin  01301211002D          

 20 22  0  0  0  0            999 V2000
    9.6006   -9.6266    0.0000 C   0  0  0  0  0  0  0  0  0  0  0  0
    9.6006  -10.4516    0.0000 C   0  0  0  0  0  0  0  0  0  0  0  0
    8.8861   -9.2141    0.0000 C   0  0  0  0  0  0  0  0  0  0  0  0
    8.8861  -10.8641    0.0000 C   0  0  0  0  0  0  0  0  0  0  0  0
    8.1717   -9.6266    0.0000 C   0  0  0  0  0  0  0  0  0  0  0  0
    8.1717  -10.4516    0.0000 C   0  0  0  0  0  0  0  0  0  0  0  0
   11.0296   -9.6266    0.0000 C   0  0  0  0  0  0  0  0  0  0  0  0
   11.0296  -10.4516    0.0000 C   0  0  0  0  0  0  0  0  0  0  0  0
   10.3151   -9.2141    0.0000 C   0  0  0  0  0  0  0  0  0  0  0  0
   10.3151  -10.8641    0.0000 C   0  0  0  0  0  0  0  0  0  0  0  0
   12.4586   -9.6266    0.0000 C   0  0  0  0  0  0  0  0  0  0  0  0
   12.4586  -10.4516    0.0000 C   0  0  0  0  0  0  0  0  0  0  0  0
   11.7441   -9.2141    0.0000 C   0  0  0  0  0  0  0  0  0  0  0  0
   11.7441  -10.8641    0.0000 C   0  0  0  0  0  0  0  0  0  0  0  0
   10.3150   -8.3891    0.0000 C   0  0  0  0  0  0  0  0  0  0  0  0
   10.3150  -11.6891    0.0000 C   0  0  0  0  0  0  0  0  0  0  0  0
   11.0295  -12.1017    0.0000 C   0  0  0  0  0  0  0  0  0  0  0  0
   11.0294  -12.9267    0.0000 C   0  0  0  0  0  0  0  0  0  0  0  0
   11.7439  -13.3392    0.0000 O   0  0  0  0  0  0  0  0  0  0  0  0
   10.3149  -13.3391    0.0000 O   0  0  0  0  0  0  0  0  0  0  0  0
  3  1  2  0  0  0  0
  4  2  2  0  0  0  0
  5  3  1  0  0  0  0
  6  4  1  0  0  0  0
  6  5  2  0  0  0  0
  9  7  2  0  0  0  0
 10  8  2  0  0  0  0
  1  9  1  0  0  0  0
  2 10  1  0  0  0  0
  2  1  1  0  0  0  0
 12 11  1  0  0  0  0
 13 11  2  0  0  0  0
 14 12  2  0  0  0  0
  7 13  1  0  0  0  0
  8 14  1  0  0  0  0
  8  7  1  0  0  0  0
  9 15  1  0  0  0  0
 10 16  1  0  0  0  0
 16 17  1  0  0  0  0
 19 18  2  0  0  0  0
 20 18  1  0  0  0  0
 17 18  1  0  0  0  0
M  END
> <ID>
CHEBI:40677

> <NAME>
3-(10-methyl-9-anthryl)propanoic acid

> <DEFINITION>
Anthracene substituted at C-9 by a propionic acid group and at C-10 by a methyl group.

> <STAR>
3

> <SYNONYM>
3-(10-METHYL-ANTHRACEN-9-YL)-PROPIONIC ACID; 3-(10-methyl-9-anthryl)propionic acid

> <IUPAC_NAME>
3-(10-methylanthracen-9-yl)propanoic acid

> <FORMULA>
C18H16O2

> <MASS>
264.31840

> <MONOISOTOPIC_MASS>
264.11503

> <CHARGE>
0

> <SMILES>
Cc1c2ccccc2c(CCC(O)=O)c2ccccc12

> <INCHI>
InChI=1S/C18H16O2/c1-12-13-6-2-4-8-15(13)17(10-11-18(19)20)16-9-5-3-7-14(12)16/h2-9H,10-11H2,1H3,(H,19,20)

> <INCHIKEY>
CKQINRXZVYBCSC-UHFFFAOYSA-N

> <REAXYS_REGISTRY_NUMBER>
3340800

> <PDBECHEM_ACCESSION>
AN1

> <PUBMED_CITATION>
12093912

$$$$

Marvin  04041114372D          

 34 36  0  0  1  0            999 V2000
   12.7358   -5.3039    0.0000 O   0  0  0  0  0  0  0  0  0  0  0  0
   12.0214   -5.7164    0.0000 C   0  0  1  0  0  0  0  0  0  0  0  0
   12.0214   -6.5414    0.0000 C   0  0  1  0  0  0  0  0  0  0  0  0
   11.3068   -5.3039    0.0000 O   0  0  0  0  0  0  0  0  0  0  0  0
   11.3068   -6.9538    0.0000 C   0  0  2  0  0  0  0  0  0  0  0  0
   10.5924   -5.7164    0.0000 C   0  0  1  0  0  0  0  0  0  0  0  0
   10.5924   -6.5414    0.0000 C   0  0  2  0  0  0  0  0  0  0  0  0
   12.7358   -6.9538    0.0000 O   0  0  0  0  0  0  0  0  0  0  0  0
   11.3068   -7.7788    0.0000 O   0  0  0  0  0  0  0  0  0  0  0  0
    9.8780   -6.9538    0.0000 O   0  0  0  0  0  0  0  0  0  0  0  0
    9.8780   -5.3039    0.0000 C   0  0  0  0  0  0  0  0  0  0  0  0
    9.1636   -5.7164    0.0000 O   0  0  0  0  0  0  0  0  0  0  0  0
    9.1636   -7.3663    0.0000 C   0  0  1  0  0  0  0  0  0  0  0  0
    9.1636   -8.1913    0.0000 C   0  0  1  0  0  0  0  0  0  0  0  0
    8.4491   -6.9538    0.0000 O   0  0  0  0  0  0  0  0  0  0  0  0
    8.4491   -8.6038    0.0000 C   0  0  2  0  0  0  0  0  0  0  0  0
    7.7347   -7.3663    0.0000 C   0  0  1  0  0  0  0  0  0  0  0  0
    7.7347   -8.1913    0.0000 C   0  0  2  0  0  0  0  0  0  0  0  0
    9.8780   -8.6038    0.0000 O   0  0  0  0  0  0  0  0  0  0  0  0
    8.4491   -9.4288    0.0000 O   0  0  0  0  0  0  0  0  0  0  0  0
    7.0202   -8.6038    0.0000 O   0  0  0  0  0  0  0  0  0  0  0  0
    7.0202   -6.9538    0.0000 C   0  0  0  0  0  0  0  0  0  0  0  0
    6.3057   -7.3663    0.0000 O   0  0  0  0  0  0  0  0  0  0  0  0
    6.3057   -9.0163    0.0000 C   0  0  1  0  0  0  0  0  0  0  0  0
    6.3057   -9.8413    0.0000 C   0  0  1  0  0  0  0  0  0  0  0  0
    5.5912   -8.6038    0.0000 O   0  0  0  0  0  0  0  0  0  0  0  0
    5.5912  -10.2538    0.0000 C   0  0  2  0  0  0  0  0  0  0  0  0
    4.8769   -9.0163    0.0000 C   0  0  1  0  0  0  0  0  0  0  0  0
    4.8769   -9.8413    0.0000 C   0  0  2  0  0  0  0  0  0  0  0  0
    7.0202  -10.2538    0.0000 O   0  0  0  0  0  0  0  0  0  0  0  0
    5.5912  -11.0787    0.0000 O   0  0  0  0  0  0  0  0  0  0  0  0
    4.1623  -10.2538    0.0000 O   0  0  0  0  0  0  0  0  0  0  0  0
    4.1623   -8.6038    0.0000 C   0  0  0  0  0  0  0  0  0  0  0  0
    3.4479   -9.0163    0.0000 O   0  0  0  0  0  0  0  0  0  0  0  0
  2  3  1  0  0  0  0
  2  4  1  0  0  0  0
  3  5  1  0  0  0  0
  4  6  1  0  0  0  0
  5  7  1  0  0  0  0
  6  7  1  0  0  0  0
  2  1  1  1  0  0  0
  3  8  1  6  0  0  0
  5  9  1  1  0  0  0
  7 10  1  1  0  0  0
  6 11  1  1  0  0  0
 12 11  1  0  0  0  0
 13 14  1  0  0  0  0
 13 15  1  0  0  0  0
 14 16  1  0  0  0  0
 15 17  1  0  0  0  0
 16 18  1  0  0  0  0
 17 18  1  0  0  0  0
 13 10  1  1  0  0  0
 14 19  1  6  0  0  0
 16 20  1  1  0  0  0
 18 21  1  1  0  0  0
 17 22  1  1  0  0  0
 23 22  1  0  0  0  0
 24 25  1  0  0  0  0
 24 26  1  0  0  0  0
 25 27  1  0  0  0  0
 26 28  1  0  0  0  0
 27 29  1  0  0  0  0
 28 29  1  0  0  0  0
 24 21  1  1  0  0  0
 25 30  1  6  0  0  0
 27 31  1  1  0  0  0
 29 32  1  1  0  0  0
 28 33  1  1  0  0  0
 34 33  1  0  0  0  0
M  END
> <ID>
CHEBI:40896

> <NAME>
beta-(1->4)-galactotriose

> <DEFINITION>
A galactotriose composed of three β-D-galactopyranose units joined by (1→4)-linkages.

> <STAR>
3

> <SYNONYM>
beta-D-Galp-(1->4)-beta-D-Galp-(1->4)-beta-D-Galp; beta-D-galactosyl-(1->4)-beta-D-galactosyl-(1->4)-beta-D-galactose; beta-D-Gal-(1->4)-beta-D-Gal-(1->4)-beta-D-Gal

> <IUPAC_NAME>
beta-D-galactopyranosyl-(1->4)-beta-D-galactopyranosyl-(1->4)-beta-D-galactopyranose

> <FORMULA>
C18H32O16

> <MASS>
504.43710

> <MONOISOTOPIC_MASS>
504.16903

> <CHARGE>
0

> <SMILES>
OC[C@H]1O[C@@H](O[C@H]2[C@@H](CO)O[C@@H](O[C@H]3[C@@H](CO)O[C@@H](O)[C@H](O)[C@H]3O)[C@H](O)[C@H]2O)[C@H](O)[C@@H](O)[C@H]1O

> <INCHI>
InChI=1S/C18H32O16/c19-1-4-7(22)8(23)12(27)17(31-4)34-15-6(3-21)32-18(13(28)10(15)25)33-14-5(2-20)30-16(29)11(26)9(14)24/h4-29H,1-3H2/t4-,5-,6-,7+,8+,9-,10-,11-,12-,13-,14+,15+,16-,17+,18+/m1/s1

> <INCHIKEY>
FYGDTMLNYKFZSV-XJJKTWKOSA-N

> <REAXYS_REGISTRY_NUMBER>
8375514

> <PDBECHEM_ACCESSION>
B4G

> <PUBMED_CITATION>
10230039; 7763824

$$$$

Marvin  01271215562D          

 25 27  0  0  1  0            999 V2000
   16.0916  -22.5527    0.0000 C   0  0  0  0  0  0  0  0  0  0  0  0
   16.0916  -23.3777    0.0000 C   0  0  0  0  0  0  0  0  0  0  0  0
   15.3770  -22.1402    0.0000 N   0  0  0  0  0  0  0  0  0  0  0  0
   15.3770  -23.7902    0.0000 C   0  0  2  0  0  0  0  0  0  0  0  0
   14.6626  -22.5527    0.0000 C   0  0  0  0  0  0  0  0  0  0  0  0
   14.6626  -23.3777    0.0000 C   0  0  0  0  0  0  0  0  0  0  0  0
   17.5206  -22.5527    0.0000 C   0  0  0  0  0  0  0  0  0  0  0  0
   17.5206  -23.3777    0.0000 C   0  0  0  0  0  0  0  0  0  0  0  0
   16.8060  -22.1402    0.0000 C   0  0  0  0  0  0  0  0  0  0  0  0
   16.8060  -23.7902    0.0000 C   0  0  0  0  0  0  0  0  0  0  0  0
   13.9481  -22.1403    0.0000 C   0  0  0  0  0  0  0  0  0  0  0  0
   13.2337  -22.5528    0.0000 C   0  0  0  0  0  0  0  0  0  0  0  0
   13.9481  -23.7902    0.0000 C   0  0  0  0  0  0  0  0  0  0  0  0
   13.2337  -23.3778    0.0000 C   0  0  0  0  0  0  0  0  0  0  0  0
   15.3770  -21.3152    0.0000 C   0  0  0  0  0  0  0  0  0  0  0  0
   15.0291  -24.5059    0.0000 C   0  0  0  0  0  0  0  0  0  0  0  0
   15.8713  -24.4311    0.0000 C   0  0  0  0  0  0  0  0  0  0  0  0
   16.4253  -25.1416    0.0000 N   0  0  0  0  0  0  0  0  0  0  0  0
   14.2062  -24.5645    0.0000 N   0  0  0  0  0  0  0  0  0  0  0  0
   15.4913  -25.1893    0.0000 O   0  0  0  0  0  0  0  0  0  0  0  0
   13.8455  -25.3065    0.0000 C   0  0  0  0  0  0  0  0  0  0  0  0
   13.0225  -25.3651    0.0000 C   0  0  0  0  0  0  0  0  0  0  0  0
   12.6618  -26.1071    0.0000 C   0  0  0  0  0  0  0  0  0  0  0  0
   11.8389  -26.1656    0.0000 O   0  0  0  0  0  0  0  0  0  0  0  0
   13.1240  -26.7905    0.0000 O   0  0  0  0  0  0  0  0  0  0  0  0
  3  1  1  0  0  0  0
  4  2  1  0  0  0  0
  5  3  1  0  0  0  0
  6  4  1  0  0  0  0
  8  7  1  0  0  0  0
  9  7  2  0  0  0  0
 10  8  2  0  0  0  0
  1  9  1  0  0  0  0
  2 10  1  0  0  0  0
  2  1  2  0  0  0  0
 11  5  1  0  0  0  0
  6  5  2  0  0  0  0
 12 11  2  0  0  0  0
 13  6  1  0  0  0  0
 14 12  1  0  0  0  0
 14 13  2  0  0  0  0
  3 15  1  0  0  0  0
  4 16  1  1  0  0  0
 18 17  3  0  0  0  0
  4 17  1  6  0  0  0
 16 19  1  0  0  0  0
 16 20  2  0  0  0  0
 19 21  1  0  0  0  0
 21 22  1  0  0  0  0
 22 23  1  0  0  0  0
 23 24  1  0  0  0  0
 23 25  2  0  0  0  0
M  END
> <ID>
CHEBI:40940

> <NAME>
3-{[(9-cyano-10-methyl-9,10-dihydroacridin-9-yl)carbonyl]amino}propanoic acid

> <DEFINITION>
An N-methylated dihydro acridine carrying carbonitrile and N-carboxyethylcarbamoyl substituents at C-9.

> <STAR>
3

> <SYNONYM>
3-{[(9-CYANO-9,10-DIHYDRO-10-METHYLACRIDIN-9-YL)CARBONYL]AMINO}PROPANOIC ACID

> <IUPAC_NAME>
3-{[(9-cyano-10-methyl-9,10-dihydroacridin-9-yl)carbonyl]amino}propanoic acid

> <FORMULA>
C19H17N3O3

> <MASS>
335.35660

> <MONOISOTOPIC_MASS>
335.12699

> <CHARGE>
0

> <SMILES>
CN1c2ccccc2C(C#N)(C(=O)NCCC(O)=O)c2ccccc12

> <INCHI>
InChI=1S/C19H17N3O3/c1-22-15-8-4-2-6-13(15)19(12-20,14-7-3-5-9-16(14)22)18(25)21-11-10-17(23)24/h2-9H,10-11H2,1H3,(H,21,25)(H,23,24)

> <INCHIKEY>
FRBAOMHMZCGBOJ-UHFFFAOYSA-N

> <PDB_ACCESSION>
1LO0

> <PDBECHEM_ACCESSION>
BC1

> <PUBMED_CITATION>
12093912

$$$$

Marvin  05241016032D          

 23 25  0  0  1  0            999 V2000
   16.4674   -7.1724    0.0000 C   0  0  0  0  0  0  0  0  0  0  0  0
   17.2924   -7.1724    0.0000 C   0  0  0  0  0  0  0  0  0  0  0  0
   17.6232   -5.7231    0.0000 C   0  0  0  0  0  0  0  0  0  0  0  0
   16.8737   -6.7260    0.0000 N   0  0  0  0  0  0  0  0  0  0  0  0
   16.8737   -5.9010    0.0000 C   0  0  0  0  0  0  0  0  0  0  0  0
   16.8799   -5.3651    0.0000 C   0  0  1  0  0  0  0  0  0  0  0  0
   16.1366   -5.7231    0.0000 C   0  0  2  0  0  0  0  0  0  0  0  0
   15.4222   -4.4856    0.0000 O   0  0  0  0  0  0  0  0  0  0  0  0
   15.4222   -5.3106    0.0000 C   0  0  0  0  0  0  0  0  0  0  0  0
   14.7076   -5.7231    0.0000 O   0  0  0  0  0  0  0  0  0  0  0  0
   16.8799   -4.5401    0.0000 O   0  0  0  0  0  0  0  0  0  0  0  0
   17.5943   -3.3026    0.0000 O   0  0  0  0  0  0  0  0  0  0  0  0
   17.5943   -4.1276    0.0000 C   0  0  0  0  0  0  0  0  0  0  0  0
   18.3089   -4.5401    0.0000 C   0  0  0  0  0  0  0  0  0  0  0  0
   19.0234   -5.7776    0.0000 C   0  0  0  0  0  0  0  0  0  0  0  0
   19.7378   -5.3651    0.0000 C   0  0  0  0  0  0  0  0  0  0  0  0
   19.7378   -4.5401    0.0000 C   0  0  0  0  0  0  0  0  0  0  0  0
   19.0234   -4.1276    0.0000 C   0  0  0  0  0  0  0  0  0  0  0  0
   18.3089   -5.3651    0.0000 C   0  0  0  0  0  0  0  0  0  0  0  0
   15.9531   -6.5273    0.0000 C   0  0  1  0  0  0  0  0  0  0  0  0
   15.1562   -6.7407    0.0000 H   0  0  0  0  0  0  0  0  0  0  0  0
   17.8067   -6.5273    0.0000 C   0  0  1  0  0  0  0  0  0  0  0  0
   18.6036   -6.7407    0.0000 H   0  0  0  0  0  0  0  0  0  0  0  0
  6  7  1  0  0  0  0
  3  6  1  0  0  0  0
  7 20  1  0  0  0  0
 20  1  1  0  0  0  0
  1  2  1  0  0  0  0
  2 22  1  0  0  0  0
 22  3  1  0  0  0  0
 20  4  1  1  0  0  0
 22  4  1  1  0  0  0
  4  5  1  0  0  0  0
  6 11  1  1  0  0  0
  7  9  1  1  0  0  0
  9  8  2  0  0  0  0
  9 10  1  0  0  0  0
 11 13  1  0  0  0  0
 13 12  2  0  0  0  0
 13 14  1  0  0  0  0
 18 14  2  0  0  0  0
 14 19  1  0  0  0  0
 15 16  1  0  0  0  0
 19 15  2  0  0  0  0
 16 17  2  0  0  0  0
 17 18  1  0  0  0  0
 20 21  1  1  0  0  0
 22 23  1  1  0  0  0
M  END
> <ID>
CHEBI:41001

> <NAME>
ecgonine benzoate

> <DEFINITION>
A  benzoate ester metabolite of cocaine formed by hydrolysis of the methyl ester group, catalysed by carboxylesterases.

> <STAR>
3

> <SECONDARY_ID>
CHEBI:3041

> <SYNONYM>
O-benzoylecgonine; O-Benzoyl-(-)-ecgonine; Benzoylecgonine; BEG; BCG; 3-(Benzoyloxy)-8-methyl-8-azabicyclo[3.2.1]octane-2-carboxylic acid; (1R,2R,3S,5S)-8-methyl-3-[(phenylcarbonyl)oxy]-8-azabicyclo[3.2.1]octane-2-carboxylic acid; (-)-benzoylecgonine

> <IUPAC_NAME>
(1R,2R,3S,5S)-3-(benzoyloxy)-8-methyl-8-azabicyclo[3.2.1]octane-2-carboxylic acid

> <FORMULA>
C16H19NO4

> <MASS>
289.32640

> <MONOISOTOPIC_MASS>
289.13141

> <CHARGE>
0

> <SMILES>
[H][C@]12CC[C@]([H])([C@H]([C@H](C1)OC(=O)c1ccccc1)C(O)=O)N2C

> <INCHI>
InChI=1S/C16H19NO4/c1-17-11-7-8-12(17)14(15(18)19)13(9-11)21-16(20)10-5-3-2-4-6-10/h2-6,11-14H,7-9H2,1H3,(H,18,19)/t11-,12+,13-,14+/m0/s1

> <INCHIKEY>
GVGYEFKIHJTNQZ-RFQIPJPRSA-N

> <BEILSTEIN_REGISTRY_NUMBER>
89637

> <CAS_REGISTRY_NUMBER>
519-09-5

> <REAXYS_REGISTRY_NUMBER>
89637

> <CHEMIDPLUS>
519-09-5

> <DRUGBANK_ACCESSION>
DB01515

> <HMDB_ACCESSION>
HMDB0041836

> <KEGG_COMPOUND_ACCESSION>
C10847

> <KNAPSACK_ACCESSION>
C00002280

> <NIST_CHEMISTRY_WEBBOOK>
519-09-5

> <PDB_ACCESSION>
1QYG

> <WIKIPEDIA_ACCESSION>
Ecgonine_benzoate

> <PUBMED_CITATION>
11095584; 11303043; 11384570; 11469854; 12908939; 14606999; 15885702; 16389661; 17610217; 18819113; 18974960; 19127949

$$$$

Marvin  02260711002D          

 12 12  0  0  0  0            999 V2000
   -0.7145    0.4125    0.0000 C   0  0  0  0  0  0  0  0  0  0  0  0
    1.4290    0.8250    0.0000 C   0  0  0  0  0  0  0  0  0  0  0  0
    0.0000   -0.8250    0.0000 C   0  0  1  0  0  0  0  0  0  0  0  0
    0.7145   -0.4125    0.0000 C   0  0  2  0  0  0  0  0  0  0  0  0
   -0.7145   -0.4125    0.0000 C   0  0  2  0  0  0  0  0  0  0  0  0
   -1.4290   -0.8250    0.0000 O   0  0  0  0  0  0  0  0  0  0  0  0
    0.0000   -1.6500    0.0000 O   0  0  0  0  0  0  0  0  0  0  0  0
    1.4290   -0.8250    0.0000 O   0  0  0  0  0  0  0  0  0  0  0  0
    0.7145    0.4125    0.0000 C   0  0  1  0  0  0  0  0  0  0  0  0
    0.7145    1.2375    0.0000 O   0  0  0  0  0  0  0  0  0  0  0  0
    0.0000    0.8250    0.0000 O   0  0  0  0  0  0  0  0  0  0  0  0
    2.1434    0.4125    0.0000 O   0  0  0  0  0  0  0  0  0  0  0  0
  3  4  1  0  0  0  0
  3  5  1  0  0  0  0
  9 11  1  0  0  0  0
 11  1  1  0  0  0  0
  1  5  1  0  0  0  0
  2  9  1  0  0  0  0
  9  4  1  0  0  0  0
  2 12  1  0  0  0  0
  3  7  1  6  0  0  0
  4  8  1  1  0  0  0
  5  6  1  6  0  0  0
  9 10  1  1  0  0  0
M  END
> <ID>
CHEBI:41005

> <NAME>
beta-D-fructopyranose

> <DEFINITION>
A D-fructopyranose in which the anomeric centre has β-configuration.

> <STAR>
3

> <SECONDARY_ID>
CHEBI:37717; CHEBI:41000

> <SYNONYM>
BETA-D-FRUCTOPYRANOSE

> <IUPAC_NAME>
beta-D-fructopyranose

> <FORMULA>
C6H12O6

> <MASS>
180.15588

> <MONOISOTOPIC_MASS>
180.06339

> <CHARGE>
0

> <SMILES>
OC[C@@]1(O)OC[C@@H](O)[C@@H](O)[C@@H]1O

> <INCHI>
InChI=1S/C6H12O6/c7-2-6(11)5(10)4(9)3(8)1-12-6/h3-5,7-11H,1-2H2/t3-,4-,5+,6-/m1/s1

> <INCHIKEY>
LKDRXBCSQODPBY-ARQDHWQXSA-N

> <BEILSTEIN_REGISTRY_NUMBER>
1423189

> <CAS_REGISTRY_NUMBER>
7660-25-5

> <GMELIN_REGISTRY_NUMBER>
1007082

> <REAXYS_REGISTRY_NUMBER>
1423189

> <CHEMIDPLUS>
7660-25-5

> <DRUGBANK_ACCESSION>
DB02561

> <NIST_CHEMISTRY_WEBBOOK>
7660-25-5

> <PDB_ACCESSION>
3OAY

> <PDBECHEM_ACCESSION>
BDF

> <PUBMED_CITATION>
12477047; 16038890; 20852065

$$$$

Marvin  05181117062D          

 15 15  0  0  1  0            999 V2000
    8.9245   -3.9612    0.0000 O   0  0  0  0  0  0  0  0  0  0  0  0
    9.6391   -1.8986    0.0000 C   0  0  2  0  0  0  0  0  0  0  0  0
    9.6391   -2.7236    0.0000 C   0  0  2  0  0  0  0  0  0  0  0  0
    8.9245   -1.4861    0.0000 O   0  0  0  0  0  0  0  0  0  0  0  0
    8.9245   -3.0788    0.0000 C   0  0  2  0  0  0  0  0  0  0  0  0
    8.2101   -1.8986    0.0000 C   0  0  1  0  0  0  0  0  0  0  0  0
    8.2101   -2.7236    0.0000 C   0  0  1  0  0  0  0  0  0  0  0  0
   10.3535   -1.4861    0.0000 O   0  0  0  0  0  0  0  0  0  0  0  0
   10.3535   -3.1361    0.0000 N   0  0  0  0  0  0  0  0  0  0  0  0
    7.4957   -3.1361    0.0000 O   0  0  0  0  0  0  0  0  0  0  0  0
    7.4957   -1.4861    0.0000 C   0  0  0  0  0  0  0  0  0  0  0  0
    6.7811   -1.8986    0.0000 O   0  0  0  0  0  0  0  0  0  0  0  0
   10.3535   -3.9612    0.0000 C   0  0  0  0  0  0  0  0  0  0  0  0
   11.0679   -4.3737    0.0000 O   0  0  0  0  0  0  0  0  0  0  0  0
    9.6390   -4.3737    0.0000 C   0  0  0  0  0  0  0  0  0  0  0  0
  2  3  1  0  0  0  0
  2  4  1  0  0  0  0
  3  5  1  0  0  0  0
  4  6  1  0  0  0  0
  5  7  1  0  0  0  0
  6  7  1  0  0  0  0
  2  8  1  6  0  0  0
  3  9  1  1  0  0  0
  5  1  1  1  0  0  0
  7 10  1  6  0  0  0
  6 11  1  1  0  0  0
 12 11  1  0  0  0  0
 14 13  2  0  0  0  0
 15 13  1  0  0  0  0
  9 13  1  0  0  0  0
M  END
> <ID>
CHEBI:41112

> <NAME>
N-acetyl-alpha-D-mannosamine

> <DEFINITION>
An N-acetylmannosamine having pyranose form and α-D-configuration.

> <STAR>
3

> <SYNONYM>
alpha-ManAc; alpha-D-ManpAc; alpha-D-ManAc; 2-acetylamino-alpha-D-2-deoxy-mannopyranose; 2-acetamido-2-deoxy-alpha-D-mannose; 2-(ACETYLAMINO)-2-DEOXY-ALPHA-D-MANNOPYRANOSE

> <IUPAC_NAME>
2-acetamido-2-deoxy-alpha-D-mannopyranose

> <FORMULA>
C8H15NO6

> <MASS>
221.20780

> <MONOISOTOPIC_MASS>
221.08994

> <CHARGE>
0

> <SMILES>
CC(=O)N[C@@H]1[C@@H](O)O[C@H](CO)[C@@H](O)[C@@H]1O

> <INCHI>
InChI=1S/C8H15NO6/c1-3(11)9-5-7(13)6(12)4(2-10)15-8(5)14/h4-8,10,12-14H,2H2,1H3,(H,9,11)/t4-,5+,6-,7-,8+/m1/s1

> <INCHIKEY>
OVRNDRQMDRJTHS-UOLFYFMNSA-N

> <REAXYS_REGISTRY_NUMBER>
1728371

> <PDBECHEM_ACCESSION>
BM3

> <PUBMED_CITATION>
12355530; 12670660; 15280054; 15936003; 3378242

$$$$

Marvin  01261214292D          

 11 11  0  0  0  0            999 V2000
   12.3639   -9.1296    0.0000 C   0  0  0  0  0  0  0  0  0  0  0  0
   12.3639   -9.9546    0.0000 C   0  0  0  0  0  0  0  0  0  0  0  0
   11.6494   -8.7171    0.0000 C   0  0  0  0  0  0  0  0  0  0  0  0
   11.6494  -10.3671    0.0000 C   0  0  0  0  0  0  0  0  0  0  0  0
   10.9349   -9.1296    0.0000 C   0  0  0  0  0  0  0  0  0  0  0  0
   10.9349   -9.9546    0.0000 C   0  0  0  0  0  0  0  0  0  0  0  0
   11.6493   -7.8921    0.0000 C   0  0  0  0  0  0  0  0  0  0  0  0
   12.3638   -7.4796    0.0000 O   0  0  0  0  0  0  0  0  0  0  0  0
   11.6493  -11.1921    0.0000 N   0  3  0  0  0  0  0  0  0  0  0  0
   10.9348  -11.6046    0.0000 O   0  5  0  0  0  0  0  0  0  0  0  0
   12.3638  -11.6047    0.0000 O   0  0  0  0  0  0  0  0  0  0  0  0
  2  1  1  0  0  0  0
  3  1  2  0  0  0  0
  4  2  2  0  0  0  0
  5  3  1  0  0  0  0
  6  4  1  0  0  0  0
  6  5  2  0  0  0  0
  3  7  1  0  0  0  0
  7  8  1  0  0  0  0
 10  9  1  0  0  0  0
 11  9  2  0  0  0  0
  4  9  1  0  0  0  0
M  CHG  2   9   1  10  -1
M  END
> <ID>
CHEBI:41214

> <NAME>
4-nitrobenzyl alcohol

> <DEFINITION>
A member of the class of benzyl alcohols that is benzyl alcohol substituted at the para-position by a nitro group.

> <STAR>
3

> <SYNONYM>
PARANITROBENZYL ALCOHOL; p-nitrobenzyl alcohol; p-(hydroxymethyl)nitrobenzene; 4-nitrobenzyl alcohol; 4-Nitrobenzenemethanol

> <IUPAC_NAME>
(4-nitrophenyl)methanol

> <FORMULA>
C7H7NO3

> <MASS>
153.13540

> <MONOISOTOPIC_MASS>
153.04259

> <CHARGE>
0

> <SMILES>
OCc1ccc(cc1)[N+]([O-])=O

> <INCHI>
InChI=1S/C7H7NO3/c9-5-6-1-3-7(4-2-6)8(10)11/h1-4,9H,5H2

> <INCHIKEY>
JKTYGPATCNUWKN-UHFFFAOYSA-N

> <BEILSTEIN_REGISTRY_NUMBER>
1424026

> <CAS_REGISTRY_NUMBER>
619-73-8

> <REAXYS_REGISTRY_NUMBER>
1424026

> <CHEMIDPLUS>
619-73-8

> <METACYC_ACCESSION>
CPD-702

> <NIST_CHEMISTRY_WEBBOOK>
619-73-8

> <PDBECHEM_ACCESSION>
BPN

> <PUBMED_CITATION>
1650428; 22081126; 6141911; 9223277

$$$$

Marvin  11280611362D          

 14 13  0  0  0  0            999 V2000
    0.0000    0.8250    0.0000 C   0  0  3  0  0  0  0  0  0  0  0  0
    0.0000    0.0000    0.0000 N   0  0  0  0  0  0  0  0  0  0  0  0
    0.7145   -0.4125    0.0000 C   0  0  0  0  0  0  0  0  0  0  0  0
   -0.7145   -0.4125    0.0000 C   0  0  0  0  0  0  0  0  0  0  0  0
    0.7145   -1.2375    0.0000 C   0  0  0  0  0  0  0  0  0  0  0  0
   -0.7144   -1.2375    0.0000 C   0  0  0  0  0  0  0  0  0  0  0  0
   -1.4289   -1.6500    0.0000 O   0  0  0  0  0  0  0  0  0  0  0  0
    1.4290   -1.6500    0.0000 O   0  0  0  0  0  0  0  0  0  0  0  0
    1.2375    1.5395    0.0000 O   0  0  0  0  0  0  0  0  0  0  0  0
    0.8250    0.8250    0.0000 C   0  0  0  0  0  0  0  0  0  0  0  0
   -0.8250    0.8250    0.0000 C   0  0  0  0  0  0  0  0  0  0  0  0
   -1.2375    0.1105    0.0000 O   0  0  0  0  0  0  0  0  0  0  0  0
    0.0000    1.6500    0.0000 C   0  0  0  0  0  0  0  0  0  0  0  0
   -0.7144    2.0625    0.0000 O   0  0  0  0  0  0  0  0  0  0  0  0
 10  1  1  0  0  0  0
  1 11  1  0  0  0  0
  1 13  1  0  0  0  0
  2  1  1  0  0  0  0
  3  2  1  0  0  0  0
  5  3  1  0  0  0  0
  2  4  1  0  0  0  0
  4  6  1  0  0  0  0
  5  8  1  0  0  0  0
  6  7  1  0  0  0  0
  9 10  1  0  0  0  0
 11 12  1  0  0  0  0
 13 14  1  0  0  0  0
M  END
> <ID>
CHEBI:41250

> <NAME>
bis-tris

> <DEFINITION>
A buffer substance useful for calibration of glass electrodes and for the preparation of the biochemical and biological buffer solutions; pKa = 6.46 at 25 °C.

> <STAR>
3

> <SECONDARY_ID>
CHEBI:37204; CHEBI:41243

> <SYNONYM>
bistris; BIS-2-HYDROXY-IMINO-TRIS-HYDROXYMETHYL-METHANE; 2-[BIS-(2-HYDROXY-ETHYL)-AMINO]-2-HYDROXYMETHYL-PROPANE-1,3-DIOL; 2-(bis(2-hydroxyethyl)amino)-2-(hydroxymethyl)-1,3-propanediol; 2,2-bis(hydroxymethyl)-2,2',2''-nitrilotriethanol

> <IUPAC_NAME>
2-[bis(2-hydroxyethyl)amino]-2-(hydroxymethyl)propane-1,3-diol

> <FORMULA>
C8H19NO5

> <MASS>
209.24020

> <MONOISOTOPIC_MASS>
209.12632

> <CHARGE>
0

> <SMILES>
OCCN(CCO)C(CO)(CO)CO

> <INCHI>
InChI=1S/C8H19NO5/c10-3-1-9(2-4-11)8(5-12,6-13)7-14/h10-14H,1-7H2

> <INCHIKEY>
OWMVSZAMULFTJU-UHFFFAOYSA-N

> <BEILSTEIN_REGISTRY_NUMBER>
2205275

> <CAS_REGISTRY_NUMBER>
6976-37-0

> <GMELIN_REGISTRY_NUMBER>
4519

> <CHEMIDPLUS>
6976-37-0

> <PDBECHEM_ACCESSION>
BTB

$$$$

Marvin  08051011492D          

 10 10  0  0  0  0            999 V2000
   -0.0125   -0.6178    0.0000 O   0  0  0  0  0  0  0  0  0  0  0  0
    0.6636   -0.1377    0.0000 C   0  0  0  0  0  0  0  0  0  0  0  0
   -0.6762   -0.1169    0.0000 C   0  0  0  0  0  0  0  0  0  0  0  0
    0.4174    0.6594    0.0000 C   0  0  0  0  0  0  0  0  0  0  0  0
   -0.4007    0.6636    0.0000 C   0  0  0  0  0  0  0  0  0  0  0  0
    1.4442   -0.4049    0.0000 C   0  0  0  0  0  0  0  0  0  0  0  0
    2.0661    0.1377    0.0000 O   0  0  0  0  0  0  0  0  0  0  0  0
   -1.4650   -0.3548    0.0000 C   0  0  0  0  0  0  0  0  0  0  0  0
   -2.0661    0.2087    0.0000 O   0  0  0  0  0  0  0  0  0  0  0  0
    1.6031   -1.2144    0.0000 H   0  0  0  0  0  0  0  0  0  0  0  0
  2  1  1  0  0  0  0
  3  1  1  0  0  0  0
  4  2  2  0  0  0  0
  5  3  2  0  0  0  0
  6  2  1  0  0  0  0
  7  6  2  0  0  0  0
  8  3  1  0  0  0  0
  9  8  1  0  0  0  0
  5  4  1  0  0  0  0
  6 10  1  0  0  0  0
M  END
> <ID>
CHEBI:412516

> <NAME>
5-hydroxymethylfurfural

> <DEFINITION>
A member of the class of furans that is furan which is substituted at positions 2 and 5 by formyl and hydroxymethyl substituents, respectively. Virtually absent from fresh foods, it is naturally generated in sugar-containing foods during storage, and especially by drying or cooking. It is the causative component in honey that affects the presystemic metabolism and pharmacokinetics of GZ in-vivo.

> <STAR>
3

> <SECONDARY_ID>
CHEBI:2077; CHEBI:42598

> <SYNONYM>
Hydroxymethylfurfurole; Hydroxymethylfurfuraldehyde; Hydroxymethylfurfuralaldehyde; Hydroxymethylfurfural; HMF; 5-Oxymethylfurfurole; 5-Hydroxymethylfurfuraldehyde; 5-hydroxymethylfurfural; 5-Hydroxymethylfuran-2-aldehyde; 5-Hydroxymethylfuraldehyde; 5-Hydroxymethyl-2-furfural; 5-Hydroxymethyl-2-furancarbaldehyde; 5-Hydroxymethyl-2-furaldehyde; 5-Hydroxymethyl-2-formylfuran; 5-HMF; 5-(Hydroxymethyl)furfurole; 5-(Hydroxymethyl)furfural; 5-(Hydroxymethyl)furan-2-aldehyde; 5-(Hydroxymethyl)-2-furfuraldehyde; 5-(Hydroxymethyl)-2-furfuraldehyde; 5-(Hydroxymethyl)-2-furfural; 5-(Hydroxymethyl)-2-furancarboxaldehyde; 5-(Hydroxymethyl)-2-furancarbonal; 5-(hydroxymethyl)-2-furaldehyde; 2-Hydroxymethyl-5-furfural

> <IUPAC_NAME>
5-(hydroxymethyl)furan-2-carbaldehyde

> <FORMULA>
C6H6O3

> <MASS>
126.11000

> <MONOISOTOPIC_MASS>
126.03169

> <CHARGE>
0

> <SMILES>
[H]C(=O)c1ccc(CO)o1

> <INCHI>
InChI=1S/C6H6O3/c7-3-5-1-2-6(4-8)9-5/h1-3,8H,4H2

> <INCHIKEY>
NOEGNKMFWQHSLB-UHFFFAOYSA-N

> <BEILSTEIN_REGISTRY_NUMBER>
110889

> <CAS_REGISTRY_NUMBER>
67-47-0

> <GMELIN_REGISTRY_NUMBER>
278693

> <REAXYS_REGISTRY_NUMBER>
110889

> <CHEMIDPLUS>
67-47-0

> <HMDB_ACCESSION>
HMDB0034355

> <KEGG_COMPOUND_ACCESSION>
C11101

> <KNAPSACK_ACCESSION>
C00029547

> <METACYC_ACCESSION>
CPD-11572

> <NIST_CHEMISTRY_WEBBOOK>
67-47-0

> <PDBECHEM_ACCESSION>
FUX

> <WIKIPEDIA_ACCESSION>
Hydroxymethylfurfural

> <PUBMED_CITATION>
1556177; 20082406; 20420424; 21838257; 22264628; 22757699; 22957895; 23106038; 24001819; 24054253; 24054256; 24399510; 24399607; 24408726; 24444020; 24518321; 25015917; 25333920; 25858076; 25922228; 28317713; 28395827; 2917974; 6391997

$$$$

Marvin  09260621312D          

  9 10  0  0  0  0            999 V2000
   -0.6736   -0.9702    0.0000 C   0  0  0  0  0  0  0  0  0  0  0  0
   -1.3881   -0.5577    0.0000 C   0  0  0  0  0  0  0  0  0  0  0  0
   -1.3881    0.2673    0.0000 C   0  0  0  0  0  0  0  0  0  0  0  0
   -0.6736    0.6798    0.0000 C   0  0  0  0  0  0  0  0  0  0  0  0
    0.0408    0.2673    0.0000 C   0  0  0  0  0  0  0  0  0  0  0  0
    1.3104   -0.1452    0.0000 C   0  0  0  0  0  0  0  0  0  0  0  0
    0.8255   -0.8126    0.0000 N   0  0  0  0  0  0  0  0  0  0  0  0
    0.0408   -0.5577    0.0000 C   0  0  0  0  0  0  0  0  0  0  0  0
    0.8255    0.5222    0.0000 N   0  0  0  0  0  0  0  0  0  0  0  0
  1  2  1  0  0  0  0
  1  8  2  0  0  0  0
  2  3  2  0  0  0  0
  3  4  1  0  0  0  0
  4  5  2  0  0  0  0
  5  9  1  0  0  0  0
  5  8  1  0  0  0  0
  9  6  1  0  0  0  0
  6  7  2  0  0  0  0
  7  8  1  0  0  0  0
M  END
> <ID>
CHEBI:41275

> <NAME>
1H-benzimidazole

> <DEFINITION>
The 1H-tautomer of benzimidazole.

> <STAR>
3

> <SECONDARY_ID>
CHEBI:41272; CHEBI:3028

> <SYNONYM>
o-benzimidazole; Hbzim; Hbim; benzoglyoxaline; BENZIMIDAZOLE; Benzimidazole; benzimidazole; azindole; 1,3-diazaindene; 1,3-benzodiazole

> <IUPAC_NAME>
1H-benzimidazole

> <FORMULA>
C7H6N2

> <MASS>
118.13602

> <MONOISOTOPIC_MASS>
118.05310

> <CHARGE>
0

> <SMILES>
c1ccc2[nH]cnc2c1

> <INCHI>
InChI=1S/C7H6N2/c1-2-4-7-6(3-1)8-5-9-7/h1-5H,(H,8,9)

> <INCHIKEY>
HYZJCKYKOHLVJF-UHFFFAOYSA-N

> <BEILSTEIN_REGISTRY_NUMBER>
109682

> <CAS_REGISTRY_NUMBER>
51-17-2

> <GMELIN_REGISTRY_NUMBER>
3106

> <REAXYS_REGISTRY_NUMBER>
109682

> <CHEMIDPLUS>
51-17-2

> <DRUGBANK_ACCESSION>
DB02962

> <KEGG_COMPOUND_ACCESSION>
C02009

> <METACYC_ACCESSION>
BENZIMIDAZOLE

> <NIST_CHEMISTRY_WEBBOOK>
51-17-2

> <PDBECHEM_ACCESSION>
BZI

> <WIKIPEDIA_ACCESSION>
Benzimidazole

> <PUBMED_CITATION>
24152176; 8070089

$$$$

Ketcher 11261604392D 1   1.00000     0.00000     0

 16 17  0     0  0            999 V2000
   17.9043   -9.0786    0.0000 C   0  0  0  0  0  0  0  0  0  0  0  0
   18.7703   -9.5786    0.0000 N   0  0  0  0  0  0  0  0  0  0  0  0
   20.5023   -7.5786    0.0000 C   0  0  0  0  0  0  0  0  0  0  0  0
   17.0382   -9.5786    0.0000 N   0  0  0  0  0  0  0  0  0  0  0  0
   19.6363   -9.0786    0.0000 C   0  0  0  0  0  0  0  0  0  0  0  0
   21.3684   -8.0786    0.0000 C   0  0  0  0  0  0  0  0  0  0  0  0
   16.1722   -9.0786    0.0000 C   0  0  0  0  0  0  0  0  0  0  0  0
   20.5023   -9.5786    0.0000 C   0  0  0  0  0  0  0  0  0  0  0  0
   14.4401   -8.0786    0.0000 C   0  0  0  0  0  0  0  0  0  0  0  0
   15.3062   -9.5786    0.0000 C   0  0  0  0  0  0  0  0  0  0  0  0
   15.3062   -7.5786    0.0000 C   0  0  0  0  0  0  0  0  0  0  0  0
   19.6363   -8.0786    0.0000 C   0  0  0  0  0  0  0  0  0  0  0  0
   17.9043   -8.0786    0.0000 O   0  0  0  0  0  0  0  0  0  0  0  0
   16.1722   -8.0786    0.0000 C   0  0  0  0  0  0  0  0  0  0  0  0
   14.4401   -9.0786    0.0000 C   0  0  0  0  0  0  0  0  0  0  0  0
   21.3684   -9.0786    0.0000 C   0  0  0  0  0  0  0  0  0  0  0  0
  2  1  1  0     0  0
  4  1  1  0     0  0
 13  1  2  0     0  0
  5  2  1  0     0  0
 12  3  1  0     0  0
  6  3  2  0     0  0
  5 12  2  0     0  0
  7  4  1  0     0  0
  8  5  1  0     0  0
 16  6  1  0     0  0
  8 16  2  0     0  0
 14  7  2  0     0  0
 10  7  1  0     0  0
 15  9  1  0     0  0
 11  9  2  0     0  0
 11 14  1  0     0  0
 15 10  2  0     0  0
M  END
> <ID>
CHEBI:41320

> <NAME>
1,3-diphenylurea

> <DEFINITION>
A member of the class of phenylureas that is urea in which one of the hydrogens of each amino group is replaced by a phenyl group. It is present in coconut milk (Cocos nucifera).

> <STAR>
3

> <SYNONYM>
sym-diphenylurea; s-diphenylurea; N-phenyl-N'-phenylurea; N,N'-diphenylurea; diphenylurea; diphenylcarbamide; carbanilide; 1,3-DIPHENYLUREA; 1,3-diphenylcarbamide

> <IUPAC_NAME>
1,3-diphenylurea

> <FORMULA>
C13H12N2O

> <MASS>
212.248

> <MONOISOTOPIC_MASS>
212.09496

> <CHARGE>
0

> <SMILES>
C(NC1=CC=CC=C1)(NC2=CC=CC=C2)=O

> <INCHI>
InChI=1S/C13H12N2O/c16-13(14-11-7-3-1-4-8-11)15-12-9-5-2-6-10-12/h1-10H,(H2,14,15,16)

> <INCHIKEY>
GWEHVDNNLFDJLR-UHFFFAOYSA-N

> <BEILSTEIN_REGISTRY_NUMBER>
782650

> <CAS_REGISTRY_NUMBER>
102-07-8

> <GMELIN_REGISTRY_NUMBER>
143821

> <REAXYS_REGISTRY_NUMBER>
782650

> <CHEMIDPLUS>
102-07-8

> <DRUGBANK_ACCESSION>
DB07496

> <HMDB_ACCESSION>
HMDB0032066

> <NIST_CHEMISTRY_WEBBOOK>
102-07-8

> <PDBECHEM_ACCESSION>
BSU

> <PUBMED_CITATION>
20727675; 7498450

$$$$

Marvin  02160719352D          

 12 12  0  0  1  0            999 V2000
    0.0000   -0.8250    0.0000 C   0  0  1  0  0  0  0  0  0  0  0  0
    0.0000   -1.6500    0.0000 O   0  0  0  0  0  0  0  0  0  0  0  0
   -0.7145   -0.4125    0.0000 C   0  0  2  0  0  0  0  0  0  0  0  0
   -1.4289   -0.8250    0.0000 O   0  0  0  0  0  0  0  0  0  0  0  0
   -0.7145    0.4125    0.0000 C   0  0  2  0  0  0  0  0  0  0  0  0
    0.7145    0.4125    0.0000 C   0  0  3  0  0  0  0  0  0  0  0  0
    1.4289    0.8250    0.0000 O   0  0  0  0  0  0  0  0  0  0  0  0
    1.4289   -0.8250    0.0000 O   0  0  0  0  0  0  0  0  0  0  0  0
    0.0000    0.8250    0.0000 O   0  0  0  0  0  0  0  0  0  0  0  0
    0.7145   -0.4125    0.0000 C   0  0  2  0  0  0  0  0  0  0  0  0
   -1.4289    0.8250    0.0000 C   0  0  0  0  0  0  0  0  0  0  0  0
   -2.1434    0.4125    0.0000 O   0  0  0  0  0  0  0  0  0  0  0  0
  5  3  1  0  0  0  0
  5  9  1  0  0  0  0
  3  1  1  0  0  0  0
  9  6  1  0  0  0  0
  1 10  1  0  0  0  0
  6 10  1  0  0  0  0
  1  2  1  1  0  0  0
  3  4  1  6  0  0  0
  5 11  1  1  0  0  0
  6  7  1  0  0  0  0
 10  8  1  6  0  0  0
 11 12  1  0  0  0  0
M  END
> <ID>
CHEBI:4167

> <NAME>
D-glucopyranose

> <DEFINITION>
A glucopyranose having D-configuration.

> <STAR>
3

> <SYNONYM>
Grape sugar; Glucose; glucose; Glc-OH; Dextrose; D-Glucose; D-glucose; D-Glcp; D-Glc

> <IUPAC_NAME>
D-glucopyranose

> <FORMULA>
C6H12O6

> <MASS>
180.15588

> <MONOISOTOPIC_MASS>
180.06339

> <CHARGE>
0

> <SMILES>
OC[C@H]1OC(O)[C@H](O)[C@@H](O)[C@@H]1O

> <INCHI>
InChI=1S/C6H12O6/c7-1-2-3(8)4(9)5(10)6(11)12-2/h2-11H,1H2/t2-,3-,4+,5-,6?/m1/s1

> <INCHIKEY>
WQZGKKKJIJFFOK-GASJEMHNSA-N

> <BEILSTEIN_REGISTRY_NUMBER>
1281604

> <CAS_REGISTRY_NUMBER>
2280-44-6

> <GMELIN_REGISTRY_NUMBER>
83256

> <REAXYS_REGISTRY_NUMBER>
1281604

> <CHEMIDPLUS>
2280-44-6

> <HMDB_ACCESSION>
HMDB0000122

> <KEGG_COMPOUND_ACCESSION>
C00031

> <KEGG_DRUG_ACCESSION>
D00009

> <KNAPSACK_ACCESSION>
C00001122

> <METACYC_ACCESSION>
D-Glucose

> <WIKIPEDIA_ACCESSION>
Glucose

> <PUBMED_CITATION>
15987845; 16901854; 17336832; 17439666; 17928662; 19913595; 26812026; 7524207; 9140037; 9501190; 9506998; 9545565

$$$$

Mrv0541 07101415542D          

  9  8  0  0  0  0            999 V2000
   10.0491   -5.8744    0.0000 H   0  0  0  0  0  0  0  0  0  0  0  0
   10.8741   -5.8744    0.0000 P   0  0  0  0  0  0  0  0  0  0  0  0
   11.6991   -5.8744    0.0000 O   0  0  0  0  0  0  0  0  0  0  0  0
   10.8741   -5.0494    0.0000 O   0  0  0  0  0  0  0  0  0  0  0  0
   11.5886   -4.6369    0.0000 C   0  0  0  0  0  0  0  0  0  0  0  0
   10.8741   -6.6994    0.0000 O   0  0  0  0  0  0  0  0  0  0  0  0
   10.1596   -7.1119    0.0000 C   0  0  0  0  0  0  0  0  0  0  0  0
   11.5886   -3.8119    0.0000 C   0  0  0  0  0  0  0  0  0  0  0  0
   10.1596   -7.9369    0.0000 C   0  0  0  0  0  0  0  0  0  0  0  0
  4  2  1  0  0  0  0
  2  6  1  0  0  0  0
  2  1  1  0  0  0  0
  2  3  2  0  0  0  0
  4  5  1  0  0  0  0
  6  7  1  0  0  0  0
  5  8  1  0  0  0  0
  7  9  1  0  0  0  0
M  END
> <ID>
CHEBI:41962

> <NAME>
diethyl phosphonate

> <DEFINITION>
A phosphonic ester that is the diethyl ester of phosphonic acid.

> <STAR>
3

> <SYNONYM>
Phosphonic acid diethyl ester; Hydrogen diethyl phosphite; Diethyl phosphite; Diethyl hydrogen phosphite; Diethoxyphosphine oxide

> <IUPAC_NAME>
diethyl phosphonate

> <FORMULA>
C4H11O3P

> <MASS>
138.10210

> <MONOISOTOPIC_MASS>
138.04458

> <CHARGE>
0

> <SMILES>
CCOP(=O)OCC

> <INCHI>
InChI=1S/C4H11O3P/c1-3-6-8(5)7-4-2/h8H,3-4H2,1-2H3

> <INCHIKEY>
MJUJXFBTEFXVKU-UHFFFAOYSA-N

> <CAS_REGISTRY_NUMBER>
762-04-9

> <REAXYS_REGISTRY_NUMBER>
605759

> <CHEMIDPLUS>
762-04-9

> <PDB_ACCESSION>
5ADO

> <PDBECHEM_ACCESSION>
DEP

> <PUBMED_CITATION>
22986831; 23688038; 24306125; 27774510

$$$$

Ketcher 12141610192D 1   1.00000     0.00000     0

 26 27  0     1  0            999 V2000
   19.0047   -6.4712    0.0000 N   0  0  0  0  0  0  0  0  0  0  0  0
   25.0665   -6.9711    0.0000 O   0  0  0  0  0  0  0  0  0  0  0  0
   22.4685   -6.4712    0.0000 C   0  0  0  0  0  0  0  0  0  0  0  0
   21.6026   -6.9712    0.0000 C   0  0  0  0  0  0  0  0  0  0  0  0
   20.7365   -6.4712    0.0000 C   0  0  0  0  0  0  0  0  0  0  0  0
   19.8705   -6.9712    0.0000 C   0  0  0  0  0  0  0  0  0  0  0  0
   24.2005   -6.4711    0.0000 C   0  0  0  0  0  0  0  0  0  0  0  0
   24.2005   -5.4711    0.0000 O   0  0  0  0  0  0  0  0  0  0  0  0
   23.3345   -6.9712    0.0000 C   0  0  0  0  0  0  0  0  0  0  0  0
   23.3345   -7.9712    0.0000 N   0  0  0  0  0  0  0  0  0  0  0  0
   19.0048   -9.4712    0.0000 C   0  0  0  0  0  0  0  0  0  0  0  0
   18.1388   -9.9712    0.0000 C   0  0  0  0  0  0  0  0  0  0  0  0
   17.2727   -9.4713    0.0000 C   0  0  0  0  0  0  0  0  0  0  0  0
   17.2726   -8.4712    0.0000 C   0  0  0  0  0  0  0  0  0  0  0  0
   18.1387   -7.9712    0.0000 C   0  0  0  0  0  0  0  0  0  0  0  0
   19.0048   -8.4712    0.0000 C   0  0  0  0  0  0  0  0  0  0  0  0
   19.8708   -7.9711    0.0000 C   0  0  0  0  0  0  0  0  0  0  0  0
   20.7368   -8.4711    0.0000 C   0  0  0  0  0  0  0  0  0  0  0  0
   20.7369   -9.4711    0.0000 C   0  0  0  0  0  0  0  0  0  0  0  0
   19.8709   -9.9711    0.0000 C   0  0  0  0  0  0  0  0  0  0  0  0
   18.1386   -6.9712    0.0000 S   0  0  0  0  0  0  0  0  0  0  0  0
   19.8709  -10.9711    0.0000 N   0  0  0  0  0  0  0  0  0  0  0  0
   19.0049  -11.4712    0.0000 C   0  0  0  0  0  0  0  0  0  0  0  0
   20.7370  -11.4711    0.0000 C   0  0  0  0  0  0  0  0  0  0  0  0
   17.1386   -6.9713    0.0000 O   0  0  0  0  0  0  0  0  0  0  0  0
   17.6387   -6.1051    0.0000 O   0  0  0  0  0  0  0  0  0  0  0  0
  2  7  1  0     0  0
  9  7  1  0     0  0
  3  9  1  0     0  0
  4  3  1  0     0  0
  5  4  1  0     0  0
  6  5  1  0     0  0
  1  6  1  0     0  0
  7  8  2  0     0  0
  9 10  1  1     0  0
 11 12  1  0     0  0
 11 16  2  0     0  0
 11 20  1  0     0  0
 12 13  2  0     0  0
 13 14  1  0     0  0
 14 15  2  0     0  0
 15 16  1  0     0  0
 16 17  1  0     0  0
 17 18  2  0     0  0
 18 19  1  0     0  0
 19 20  2  0     0  0
 15 21  1  0     0  0
 20 22  1  0     0  0
 22 23  1  0     0  0
 22 24  1  0     0  0
 21  1  1  0     0  0
 25 21  2  0     0  0
 26 21  2  0     0  0
M  END
> <ID>
CHEBI:42024

> <NAME>
N(6)-dansyl-L-lysine

> <DEFINITION>
An L-lysine derivative with a dansyl group at the N6-position.

> <STAR>
3

> <SYNONYM>
N(6)-{[5-(dimethylamino)-1-naphthyl]sulfonyl}-L-lysine; N(epsilon)-Dansyl-L-lysine; Dns-lysine; Dansyllysine

> <IUPAC_NAME>
N(6)-[5-(dimethylamino)naphthalene-1-sulfonyl]-L-lysine

> <FORMULA>
C18H25N3O4S

> <MASS>
379.476

> <MONOISOTOPIC_MASS>
379.15658

> <CHARGE>
0

> <SMILES>
N(CCCC[C@@H](C(O)=O)N)S(C1=CC=CC2=C1C=CC=C2N(C)C)(=O)=O

> <INCHI>
InChI=1S/C18H25N3O4S/c1-21(2)16-10-5-8-14-13(16)7-6-11-17(14)26(24,25)20-12-4-3-9-15(19)18(22)23/h5-8,10-11,15,20H,3-4,9,12,19H2,1-2H3,(H,22,23)/t15-/m0/s1

> <INCHIKEY>
VQPRNSWQIAHPMS-HNNXBMFYSA-N

> <BEILSTEIN_REGISTRY_NUMBER>
2786589

> <CAS_REGISTRY_NUMBER>
1101-84-4

> <REAXYS_REGISTRY_NUMBER>
2786589

> <CHEMIDPLUS>
1101-84-4

> <DRUGBANK_ACCESSION>
DB04676

> <PDB_ACCESSION>
1WZ1

> <PDBECHEM_ACCESSION>
DNS

> <PUBMED_CITATION>
16019026; 6200599; 9523993

$$$$

Marvin  04050712322D          

 32 36  0  0  0  0            999 V2000
   -1.5313    0.3875    0.0000 C   0  0  0  0  0  0  0  0  0  0  0  0
   -2.2457   -0.0250    0.0000 C   0  0  0  0  0  0  0  0  0  0  0  0
   -1.5313   -1.2625    0.0000 C   0  0  0  0  0  0  0  0  0  0  0  0
   -0.1023   -1.2625    0.0000 C   0  0  0  0  0  0  0  0  0  0  0  0
    0.6121   -0.8500    0.0000 C   0  0  0  0  0  0  0  0  0  0  0  0
   -0.1023    1.2125    0.0000 C   0  0  0  0  0  0  0  0  0  0  0  0
    2.1112    0.1326    0.0000 C   0  0  0  0  0  0  0  0  0  0  0  0
    2.5961    0.8000    0.0000 C   0  0  0  0  0  0  0  0  0  0  0  0
   -2.2457   -0.8500    0.0000 C   0  0  1  0  0  0  0  0  0  0  0  0
   -2.9602   -1.2625    0.0000 O   0  0  0  0  0  0  0  0  0  0  0  0
   -0.8168   -0.8500    0.0000 C   0  0  1  0  0  0  0  0  0  0  0  0
   -0.8168   -1.6750    0.0000 H   0  0  0  0  0  0  0  0  0  0  0  0
   -0.8168   -0.0250    0.0000 C   0  0  2  0  0  0  0  0  0  0  0  0
   -0.8168    0.8000    0.0000 C   0  0  0  0  0  0  0  0  0  0  0  0
   -0.1023    0.3875    0.0000 C   0  0  2  0  0  0  0  0  0  0  0  0
   -0.1023   -0.4375    0.0000 H   0  0  0  0  0  0  0  0  0  0  0  0
    1.3266    0.3875    0.0000 C   0  0  1  0  0  0  0  0  0  0  0  0
    1.3266   -0.4375    0.0000 O   0  0  0  0  0  0  0  0  0  0  0  0
    0.6121    1.6250    0.0000 C   0  0  1  0  0  0  0  0  0  0  0  0
    0.6121    2.4500    0.0000 O   0  0  0  0  0  0  0  0  0  0  0  0
    1.3266    1.2125    0.0000 C   0  0  1  0  0  0  0  0  0  0  0  0
    1.3266    2.0375    0.0000 C   0  0  0  0  0  0  0  0  0  0  0  0
    3.1158    2.4986    0.0000 C   0  0  0  0  0  0  0  0  0  0  0  0
    1.8575    2.9443    0.0000 C   0  0  0  0  0  0  0  0  0  0  0  0
    2.3248    2.2644    0.0000 C   0  0  0  0  0  0  0  0  0  0  0  0
    3.1374    3.3233    0.0000 O   0  0  0  0  0  0  0  0  0  0  0  0
    2.3598    3.5988    0.0000 C   0  0  0  0  0  0  0  0  0  0  0  0
    2.0838    4.3644    0.0000 O   0  0  0  0  0  0  0  0  0  0  0  0
    2.1112    1.4675    0.0000 C   0  0  1  0  0  0  0  0  0  0  0  0
    2.9081    1.6810    0.0000 H   0  0  0  0  0  0  0  0  0  0  0  0
    0.6121   -0.0250    0.0000 C   0  0  2  0  0  0  0  0  0  0  0  0
    0.6121    0.8000    0.0000 H   0  0  0  0  0  0  0  0  0  0  0  0
  1  2  1  0  0  0  0
  1 13  1  0  0  0  0
  2  9  1  0  0  0  0
  9  3  1  0  0  0  0
  3 11  1  0  0  0  0
 15 13  1  0  0  0  0
 13 11  1  0  0  0  0
 11  4  1  0  0  0  0
  4  5  1  0  0  0  0
  5 31  1  0  0  0  0
 31 17  1  0  0  0  0
 15 31  1  0  0  0  0
  6 15  1  0  0  0  0
 19  6  1  0  0  0  0
 19 21  1  0  0  0  0
 29 21  1  0  0  0  0
 21 17  1  0  0  0  0
 17  7  1  0  0  0  0
 29  8  1  0  0  0  0
  7  8  1  0  0  0  0
  9 10  1  1  0  0  0
 11 12  1  1  0  0  0
 13 14  1  1  0  0  0
 15 16  1  6  0  0  0
 17 18  1  1  0  0  0
 19 20  1  1  0  0  0
 21 22  1  1  0  0  0
 29 25  1  0  0  0  0
 23 26  1  0  0  0  0
 23 25  1  0  0  0  0
 26 27  1  0  0  0  0
 27 24  1  0  0  0  0
 24 25  2  0  0  0  0
 27 28  2  0  0  0  0
 29 30  1  6  0  0  0
 31 32  1  1  0  0  0
M  END
> <ID>
CHEBI:42098

> <NAME>
digoxigenin

> <DEFINITION>
A hydroxy steroid that consists of 5β-cardanolide having a double bond at the 20(22)-position as well as hydroxy groups at the 3β-, 12β- and 14β-positions. It has been isolated from the plant species of the genus Digitalis.

> <STAR>
3

> <SECONDARY_ID>
CHEBI:38020; CHEBI:42096

> <IUPAC_NAME>
3beta,12beta,14-trihydroxy-5beta-card-20(22)-enolide

> <FORMULA>
C23H34O5

> <MASS>
390.51306

> <MONOISOTOPIC_MASS>
390.24062

> <CHARGE>
0

> <SMILES>
[H][C@]12CC[C@]3([H])[C@]([H])(C[C@@H](O)[C@]4(C)[C@]([H])(CC[C@]34O)C3=CC(=O)OC3)[C@@]1(C)CC[C@H](O)C2

> <INCHI>
InChI=1S/C23H34O5/c1-21-7-5-15(24)10-14(21)3-4-17-18(21)11-19(25)22(2)16(6-8-23(17,22)27)13-9-20(26)28-12-13/h9,14-19,24-25,27H,3-8,10-12H2,1-2H3/t14-,15+,16-,17-,18+,19-,21+,22+,23+/m1/s1

> <INCHIKEY>
SHIBSTMRCDJXLN-KCZCNTNESA-N

> <CAS_REGISTRY_NUMBER>
1672-46-4

> <CHEMIDPLUS>
1672-46-4

> <HMDB_ACCESSION>
HMDB0060731

> <LIPID_MAPS_INSTANCE_ACCESSION>
LMST01120008

> <METACYC_ACCESSION>
CPD-22579

> <PDBECHEM_ACCESSION>
DOG

> <WIKIPEDIA_ACCESSION>
Digoxigenin

> <PUBMED_CITATION>
10438974; 23344238; 23383657; 8080093; 9470094

$$$$

Mrv0541 04171413222D          

 11 11  0  0  0  0            999 V2000
    1.4322   -5.5165    0.0000 C   0  0  0  0  0  0  0  0  0  0  0  0
    0.7178   -5.1041    0.0000 C   0  0  0  0  0  0  0  0  0  0  0  0
    0.0032   -5.5166    0.0000 C   0  0  0  0  0  0  0  0  0  0  0  0
    0.0032   -6.3415    0.0000 C   0  0  0  0  0  0  0  0  0  0  0  0
    0.7176   -6.7541    0.0000 C   0  0  0  0  0  0  0  0  0  0  0  0
    1.4322   -6.3416    0.0000 C   0  0  0  0  0  0  0  0  0  0  0  0
    2.1466   -5.1041    0.0000 C   0  0  0  0  0  0  0  0  0  0  0  0
    2.1467   -4.2792    0.0000 O   0  0  0  0  0  0  0  0  0  0  0  0
    2.8611   -5.5166    0.0000 O   0  0  0  0  0  0  0  0  0  0  0  0
    2.1466   -6.7541    0.0000 O   0  0  0  0  0  0  0  0  0  0  0  0
    2.1466   -7.5791    0.0000 C   0  0  0  0  0  0  0  0  0  0  0  0
  1  2  1  0  0  0  0
  1  6  2  0  0  0  0
  2  3  2  0  0  0  0
  3  4  1  0  0  0  0
  4  5  2  0  0  0  0
  5  6  1  0  0  0  0
  1  7  1  0  0  0  0
  7  8  2  0  0  0  0
  7  9  1  0  0  0  0
  6 10  1  0  0  0  0
 10 11  1  0  0  0  0
M  END
> <ID>
CHEBI:421840

> <NAME>
O-methylsalicylic acid

> <DEFINITION>
A  methoxybenzoic acid that is the methyl ether of salicylic acid.

> <STAR>
3

> <SYNONYM>
Salicylic acid methyl ether; ortho-methoxybenzoic acid; o-Methoxybenzoic acid; o-anisic acid; 2-Methoxy-benzoic acid; 2-Anisic acid

> <IUPAC_NAME>
2-methoxybenzoic acid

> <FORMULA>
C8H8O3

> <MASS>
152.14730

> <MONOISOTOPIC_MASS>
152.04734

> <CHARGE>
0

> <SMILES>
COc1ccccc1C(O)=O

> <INCHI>
InChI=1S/C8H8O3/c1-11-7-5-3-2-4-6(7)8(9)10/h2-5H,1H3,(H,9,10)

> <INCHIKEY>
ILUJQPXNXACGAN-UHFFFAOYSA-N

> <BEILSTEIN_REGISTRY_NUMBER>
509929

> <CAS_REGISTRY_NUMBER>
579-75-9

> <REAXYS_REGISTRY_NUMBER>
509929

> <CHEMIDPLUS>
579-75-9

> <HMDB_ACCESSION>
HMDB0032604

> <NIST_CHEMISTRY_WEBBOOK>
579-75-9

> <WIKIPEDIA_ACCESSION>
O-Methoxybenzoic_acid

> <PUBMED_CITATION>
1650428; 3425858; 9252874

$$$$

Marvin  06151116542D          

 29 30  0  0  1  0            999 V2000
   11.3245   -3.4603    0.0000 C   0  0  1  0  0  0  0  0  0  0  0  0
   11.3245   -4.2852    0.0000 C   0  0  1  0  0  0  0  0  0  0  0  0
   10.6100   -3.0477    0.0000 O   0  0  0  0  0  0  0  0  0  0  0  0
   10.6100   -4.6977    0.0000 C   0  0  2  0  0  0  0  0  0  0  0  0
    9.8954   -3.4603    0.0000 C   0  0  1  0  0  0  0  0  0  0  0  0
    9.8954   -4.2852    0.0000 C   0  0  2  0  0  0  0  0  0  0  0  0
   12.0390   -3.0477    0.0000 O   0  0  0  0  0  0  0  0  0  0  0  0
   12.0390   -4.6977    0.0000 N   0  0  0  0  0  0  0  0  0  0  0  0
   10.6100   -5.5227    0.0000 O   0  0  0  0  0  0  0  0  0  0  0  0
    9.1809   -4.6977    0.0000 O   0  0  0  0  0  0  0  0  0  0  0  0
    9.1809   -3.0477    0.0000 C   0  0  0  0  0  0  0  0  0  0  0  0
    8.4666   -3.4603    0.0000 O   0  0  0  0  0  0  0  0  0  0  0  0
    9.8956   -5.9352    0.0000 C   0  0  2  0  0  0  0  0  0  0  0  0
    9.8956   -6.7602    0.0000 C   0  0  1  0  0  0  0  0  0  0  0  0
    9.1809   -5.5228    0.0000 O   0  0  0  0  0  0  0  0  0  0  0  0
    9.1811   -7.1727    0.0000 C   0  0  2  0  0  0  0  0  0  0  0  0
    8.4664   -5.9354    0.0000 C   0  0  1  0  0  0  0  0  0  0  0  0
    8.4666   -6.7602    0.0000 C   0  0  2  0  0  0  0  0  0  0  0  0
   10.6101   -7.1727    0.0000 N   0  0  0  0  0  0  0  0  0  0  0  0
    9.1809   -7.9977    0.0000 O   0  0  0  0  0  0  0  0  0  0  0  0
    7.7521   -7.1727    0.0000 O   0  0  0  0  0  0  0  0  0  0  0  0
    7.7519   -5.5229    0.0000 C   0  0  0  0  0  0  0  0  0  0  0  0
    7.0375   -5.9353    0.0000 O   0  0  0  0  0  0  0  0  0  0  0  0
   10.6101   -7.9976    0.0000 C   0  0  0  0  0  0  0  0  0  0  0  0
   11.3245   -8.4101    0.0000 O   0  0  0  0  0  0  0  0  0  0  0  0
    9.8956   -8.4102    0.0000 C   0  0  0  0  0  0  0  0  0  0  0  0
   12.0390   -5.5226    0.0000 C   0  0  0  0  0  0  0  0  0  0  0  0
   12.7534   -5.9351    0.0000 O   0  0  0  0  0  0  0  0  0  0  0  0
   11.3245   -5.9352    0.0000 C   0  0  0  0  0  0  0  0  0  0  0  0
  1  2  1  0  0  0  0
  1  3  1  0  0  0  0
  2  4  1  0  0  0  0
  3  5  1  0  0  0  0
  4  6  1  0  0  0  0
  5  6  1  0  0  0  0
  1  7  1  1  0  0  0
  2  8  1  6  0  0  0
  4  9  1  1  0  0  0
  6 10  1  1  0  0  0
  5 11  1  1  0  0  0
 12 11  1  0  0  0  0
 13 14  1  0  0  0  0
 13 15  1  0  0  0  0
 14 16  1  0  0  0  0
 15 17  1  0  0  0  0
 16 18  1  0  0  0  0
 17 18  1  0  0  0  0
 14 19  1  6  0  0  0
 16 20  1  1  0  0  0
 18 21  1  1  0  0  0
 17 22  1  1  0  0  0
 23 22  1  0  0  0  0
 25 24  2  0  0  0  0
 26 24  1  0  0  0  0
 19 24  1  0  0  0  0
 13  9  1  6  0  0  0
 28 27  2  0  0  0  0
 29 27  1  0  0  0  0
  8 27  1  0  0  0  0
M  END
> <ID>
CHEBI:42528

> <NAME>
alpha-D-GalNpAc-(1->3)-beta-D-GalpNAc

> <DEFINITION>
An α-D-GalpNAc-(1→3)-D-GalpNAc having β-configuration at the reducing end anomeric centre.

> <STAR>
3

> <SYNONYM>
N-acetyl-alpha-D-galactosaminyl-(1->3)-N-acetyl-beta-D-galactosamine; GalNAca1-3GalNAcb; Forssman disaccharide; FORSMANN ANTIGEN; alphaGalNAc(1->3)betaGalNAc; alpha-D-GalNAc-(1->3)-beta-D-GalNAc; 2-acetamido-3-O-(2-acetamido-2-deoxy-alpha-D-galactopyranosyl)-2-deoxy-beta-D-galactopyranose; 2-(acetylamino)-2-deoxy-alpha-D-galactopyranosyl-(1->3)-2-(acetylamino)-2-deoxy-beta-D-galactopyranose

> <IUPAC_NAME>
2-acetamido-2-deoxy-alpha-D-galactopyranosyl-(1->3)-2-acetamido-2-deoxy-beta-D-galactopyranose

> <FORMULA>
C16H28N2O11

> <MASS>
424.40030

> <MONOISOTOPIC_MASS>
424.16931

> <CHARGE>
0

> <SMILES>
CC(=O)N[C@H]1[C@H](O)O[C@H](CO)[C@H](O)[C@@H]1O[C@H]1O[C@H](CO)[C@H](O)[C@H](O)[C@H]1NC(C)=O

> <INCHI>
InChI=1S/C16H28N2O11/c1-5(21)17-9-13(25)11(23)7(3-19)28-16(9)29-14-10(18-6(2)22)15(26)27-8(4-20)12(14)24/h7-16,19-20,23-26H,3-4H2,1-2H3,(H,17,21)(H,18,22)/t7-,8-,9-,10-,11+,12+,13-,14-,15-,16-/m1/s1

> <INCHIKEY>
FJGXDMQHNYEUHI-LRFIHEIOSA-N

> <REAXYS_REGISTRY_NUMBER>
7800092

> <PDBECHEM_ACCESSION>
FSM

> <PUBMED_CITATION>
17431391; 17652409; 19443021; 25568069; 2856907; 31537530; 3257757; 6704310; 7521740; 7696844; 7696847; 7819593; 8125993; 9846499

$$$$

Marvin  05241016382D          

 19 20  0  0  0  0            999 V2000
    8.6999   -7.9276    0.0000 C   0  0  0  0  0  0  0  0  0  0  0  0
    9.4144   -7.5151    0.0000 C   0  0  0  0  0  0  0  0  0  0  0  0
   10.1289   -7.9276    0.0000 C   0  0  0  0  0  0  0  0  0  0  0  0
   10.8434   -7.5151    0.0000 C   0  0  0  0  0  0  0  0  0  0  0  0
   11.6280   -7.7701    0.0000 N   0  0  0  0  0  0  0  0  0  0  0  0
   12.1125   -7.1026    0.0000 C   0  0  0  0  0  0  0  0  0  0  0  0
   12.9374   -7.1026    0.0000 N   0  0  0  0  0  0  0  0  0  0  0  0
   11.6280   -6.4353    0.0000 N   0  0  0  0  0  0  0  0  0  0  0  0
   11.8829   -5.6507    0.0000 C   0  0  0  0  0  0  0  0  0  0  0  0
   11.3309   -5.0379    0.0000 C   0  0  0  0  0  0  0  0  0  0  0  0
   11.5858   -4.2532    0.0000 C   0  0  0  0  0  0  0  0  0  0  0  0
   11.0338   -3.6399    0.0000 C   0  0  0  0  0  0  0  0  0  0  0  0
   11.2888   -2.8559    0.0000 C   0  0  0  0  0  0  0  0  0  0  0  0
   12.0957   -2.6840    0.0000 O   0  0  0  0  0  0  0  0  0  0  0  0
   10.7367   -2.2425    0.0000 O   0  0  0  0  0  0  0  0  0  0  0  0
   10.8434   -6.6903    0.0000 C   0  0  0  0  0  0  0  0  0  0  0  0
   10.1289   -6.2778    0.0000 C   0  0  0  0  0  0  0  0  0  0  0  0
    9.4144   -6.6903    0.0000 C   0  0  0  0  0  0  0  0  0  0  0  0
    8.6999   -6.2778    0.0000 C   0  0  0  0  0  0  0  0  0  0  0  0
  1  2  1  0  0  0  0
  2  3  1  0  0  0  0
  2 18  2  0  0  0  0
  3  4  2  0  0  0  0
  4  5  1  0  0  0  0
  4 16  1  0  0  0  0
  5  6  2  0  0  0  0
  6  7  1  0  0  0  0
  6  8  1  0  0  0  0
  8  9  1  0  0  0  0
  8 16  1  0  0  0  0
  9 10  1  0  0  0  0
 10 11  1  0  0  0  0
 11 12  1  0  0  0  0
 12 13  1  0  0  0  0
 13 14  1  0  0  0  0
 13 15  2  0  0  0  0
 16 17  2  0  0  0  0
 17 18  1  0  0  0  0
 18 19  1  0  0  0  0
M  END
> <ID>
CHEBI:43007

> <NAME>
5-(2-amino-5,6-dimethyl-1H-benzimidazol-1-yl)pentanoic acid

> <DEFINITION>
A 2-aminobenzimidazole having methyl substituents at the 5- and 6-positions and a 5-carboxypentyl group at the 1-position.

> <STAR>
3

> <SYNONYM>
2-amino-5,6-dimethylbenzimidazole-1-pentanoic acid; 2-AMINO-5,6-DIMETHYL-BENZIMIDAZOLE-1-PENTANOIC ACID

> <IUPAC_NAME>
5-(2-amino-5,6-dimethyl-1H-benzimidazol-1-yl)pentanoic acid

> <FORMULA>
C14H19N3O2

> <MASS>
261.31960

> <MONOISOTOPIC_MASS>
261.14773

> <CHARGE>
0

> <SMILES>
Cc1cc2nc(N)n(CCCCC(O)=O)c2cc1C

> <INCHI>
InChI=1S/C14H19N3O2/c1-9-7-11-12(8-10(9)2)17(14(15)16-11)6-4-3-5-13(18)19/h7-8H,3-6H2,1-2H3,(H2,15,16)(H,18,19)

> <INCHIKEY>
ONFQTORHROMJSV-UHFFFAOYSA-N

> <REAXYS_REGISTRY_NUMBER>
30206144

> <PDB_ACCESSION>
1Y0L

> <PDBECHEM_ACCESSION>
HAN

> <PUBMED_CITATION>
15788533; 19846764

$$$$

Marvin  06151013122D          

 23 23  0  0  1  0            999 V2000
    8.2834    0.9487    0.0000 C   0  0  0  0  0  0  0  0  0  0  0  0
    7.5689    0.5362    0.0000 C   0  0  0  0  0  0  0  0  0  0  0  0
    7.5689   -0.2888    0.0000 C   0  0  0  0  0  0  0  0  0  0  0  0
    6.8545   -0.7013    0.0000 C   0  0  0  0  0  0  0  0  0  0  0  0
    6.8545   -1.5263    0.0000 C   0  0  2  0  0  0  0  0  0  0  0  0
    7.5689   -1.9388    0.0000 N   0  0  0  0  0  0  0  0  0  0  0  0
    8.2834   -1.5263    0.0000 C   0  0  0  0  0  0  0  0  0  0  0  0
    8.2834   -0.7013    0.0000 O   0  0  0  0  0  0  0  0  0  0  0  0
    8.9979   -1.9388    0.0000 C   0  0  0  0  0  0  0  0  0  0  0  0
    9.7124   -1.5263    0.0000 C   0  0  0  0  0  0  0  0  0  0  0  0
   10.4268   -1.9388    0.0000 C   0  0  0  0  0  0  0  0  0  0  0  0
   11.1413   -1.5263    0.0000 O   0  0  0  0  0  0  0  0  0  0  0  0
   10.4268   -2.7638    0.0000 O   0  0  0  0  0  0  0  0  0  0  0  0
    6.1400   -1.9388    0.0000 P   0  0  2  0  0  0  0  0  0  0  0  0
    5.7275   -1.2244    0.0000 O   0  0  0  0  0  0  0  0  0  0  0  0
    6.5525   -2.6533    0.0000 O   0  0  0  0  0  0  0  0  0  0  0  0
    5.4255   -2.3513    0.0000 O   0  0  0  0  0  0  0  0  0  0  0  0
    4.7111   -1.9388    0.0000 C   0  0  0  0  0  0  0  0  0  0  0  0
    3.9966   -2.3513    0.0000 C   0  0  0  0  0  0  0  0  0  0  0  0
    3.2821   -1.9388    0.0000 C   0  0  0  0  0  0  0  0  0  0  0  0
    3.2821   -1.1138    0.0000 C   0  0  0  0  0  0  0  0  0  0  0  0
    3.9966   -0.7013    0.0000 C   0  0  0  0  0  0  0  0  0  0  0  0
    4.7111   -1.1138    0.0000 C   0  0  0  0  0  0  0  0  0  0  0  0
  1  2  1  0  0  0  0
  2  3  1  0  0  0  0
  3  4  1  0  0  0  0
  4  5  1  0  0  0  0
  5  6  1  6  0  0  0
  5 14  1  0  0  0  0
  6  7  1  0  0  0  0
  7  8  2  0  0  0  0
  7  9  1  0  0  0  0
  9 10  1  0  0  0  0
 10 11  1  0  0  0  0
 11 12  1  0  0  0  0
 11 13  2  0  0  0  0
 14 15  1  1  0  0  0
 14 16  2  0  0  0  0
 14 17  1  0  0  0  0
 17 18  1  0  0  0  0
 18 19  1  0  0  0  0
 18 23  2  0  0  0  0
 19 20  2  0  0  0  0
 20 21  1  0  0  0  0
 21 22  2  0  0  0  0
 22 23  1  0  0  0  0
M  END
> <ID>
CHEBI:43012

> <NAME>
phenyl [1-(N-succinylamino)pentyl]phosphonate

> <DEFINITION>
A  dicarboxylic acid monoamide that is a hapten and transition state analogue containing phenylphosphonate and succinoylamino moieties.

> <STAR>
3

> <SYNONYM>
phenyl[1-(n-succinylamino)pentyl]phosphonate

> <IUPAC_NAME>
4-({(1R)-1-[(R)-hydroxy(phenoxy)phosphoryl]pentyl}amino)-4-oxobutanoic acid

> <FORMULA>
C15H22NO6P

> <MASS>
343.31200

> <MONOISOTOPIC_MASS>
343.11847

> <CHARGE>
0

> <SMILES>
CCCC[C@H](NC(=O)CCC(O)=O)[P@](O)(=O)Oc1ccccc1

> <INCHI>
InChI=1S/C15H22NO6P/c1-2-3-9-14(16-13(17)10-11-15(18)19)23(20,21)22-12-7-5-4-6-8-12/h4-8,14H,2-3,9-11H2,1H3,(H,16,17)(H,18,19)(H,20,21)/t14-/m1/s1

> <INCHIKEY>
FJQWWGCHPFSERW-CQSZACIVSA-N

> <DRUGBANK_ACCESSION>
DB07893

> <PDB_ACCESSION>
1EAP

> <PDBECHEM_ACCESSION>
HEP

> <PUBMED_CITATION>
9753552

$$$$

Marvin  02231014292D          

 12 11  0  0  0  0            999 V2000
   -3.9704    1.4732    0.0000 C   0  0  0  0  0  0  0  0  0  0  0  0
   -3.2559    1.0607    0.0000 C   0  0  0  0  0  0  0  0  0  0  0  0
   -2.5414    1.4732    0.0000 C   0  0  0  0  0  0  0  0  0  0  0  0
   -1.8269    1.0607    0.0000 C   0  0  0  0  0  0  0  0  0  0  0  0
   -1.1125    1.4732    0.0000 C   0  0  0  0  0  0  0  0  0  0  0  0
   -0.3980    1.0607    0.0000 C   0  0  2  0  0  0  0  0  0  0  0  0
    0.3165    1.4732    0.0000 C   0  0  0  0  0  0  0  0  0  0  0  0
    1.0309    1.0607    0.0000 C   0  0  0  0  0  0  0  0  0  0  0  0
    1.7454    1.4732    0.0000 C   0  0  0  0  0  0  0  0  0  0  0  0
    1.7454    2.2982    0.0000 O   0  0  0  0  0  0  0  0  0  0  0  0
   -0.3980    0.2357    0.0000 O   0  0  0  0  0  0  0  0  0  0  0  0
    2.4599    1.0607    0.0000 H   0  0  0  0  0  0  0  0  0  0  0  0
  1  2  1  0  0  0  0
  2  3  1  0  0  0  0
  3  4  1  0  0  0  0
  4  5  1  0  0  0  0
  5  6  1  0  0  0  0
  6  7  1  0  0  0  0
  7  8  2  0  0  0  0
  8  9  1  0  0  0  0
  9 10  2  0  0  0  0
  6 11  1  6  0  0  0
  9 12  1  0  0  0  0
M  END
> <ID>
CHEBI:43219

> <NAME>
(2E,4R)-4-hydroxynon-2-enal

> <DEFINITION>
The R stereoisomer of (E)-4-hydroxynon-2-enal.

> <STAR>
3

> <SYNONYM>
R-HNE; (2E,4R)-4-HYDROXYNON-2-ENAL

> <IUPAC_NAME>
(2E,4R)-4-hydroxynon-2-enal

> <FORMULA>
C9H16O2

> <MASS>
156.22210

> <MONOISOTOPIC_MASS>
156.11503

> <CHARGE>
0

> <SMILES>
[H]C(=O)\C=C\[C@H](O)CCCCC

> <INCHI>
InChI=1S/C9H16O2/c1-2-3-4-6-9(11)7-5-8-10/h5,7-9,11H,2-4,6H2,1H3/b7-5+/t9-/m1/s1

> <INCHIKEY>
JVJFIQYAHPMBBX-VPIOIWJLSA-N

> <BEILSTEIN_REGISTRY_NUMBER>
4660015

> <REAXYS_REGISTRY_NUMBER>
4660015

> <PDBECHEM_ACCESSION>
HNE

> <PUBMED_CITATION>
11256969; 16603628; 21401344; 26437435

$$$$

Marvin  06151013562D          

 28 30  0  0  1  0            999 V2000
    1.5958   -5.0139    0.0000 C   0  0  0  0  0  0  0  0  0  0  0  0
    0.8812   -5.4264    0.0000 C   0  0  0  0  0  0  0  0  0  0  0  0
    0.8812   -6.2513    0.0000 C   0  0  0  0  0  0  0  0  0  0  0  0
    1.5958   -6.6638    0.0000 C   0  0  0  0  0  0  0  0  0  0  0  0
    2.3103   -6.2513    0.0000 C   0  0  0  0  0  0  0  0  0  0  0  0
    2.3103   -5.4264    0.0000 C   0  0  0  0  0  0  0  0  0  0  0  0
    1.5958   -7.4888    0.0000 C   0  0  0  0  0  0  0  0  0  0  0  0
    0.8812   -7.9012    0.0000 O   0  0  0  0  0  0  0  0  0  0  0  0
    2.3103   -7.9012    0.0000 N   0  0  0  0  0  0  0  0  0  0  0  0
    3.0248   -7.4888    0.0000 C   0  0  0  0  0  0  0  0  0  0  0  0
    3.7388   -7.9012    0.0000 C   0  0  0  0  0  0  0  0  0  0  0  0
    4.4533   -7.4888    0.0000 C   0  0  0  0  0  0  0  0  0  0  0  0
    5.1678   -7.9012    0.0000 C   0  0  0  0  0  0  0  0  0  0  0  0
    5.1678   -8.7262    0.0000 O   0  0  0  0  0  0  0  0  0  0  0  0
    5.8824   -7.4888    0.0000 O   0  0  0  0  0  0  0  0  0  0  0  0
    1.5958   -4.1889    0.0000 C   0  0  1  0  0  0  0  0  0  0  0  0
    1.5958   -2.5389    0.0000 C   0  0  1  0  0  0  0  0  0  0  0  0
    0.8814   -2.9514    0.0000 C   0  0  0  0  0  0  0  0  0  0  0  0
    0.8814   -3.7764    0.0000 C   0  0  0  0  0  0  0  0  0  0  0  0
    2.3103   -3.7764    0.0000 C   0  0  2  0  0  0  0  0  0  0  0  0
    2.3103   -2.9514    0.0000 C   0  0  0  0  0  0  0  0  0  0  0  0
    1.5958   -1.7139    0.0000 C   0  0  0  0  0  0  0  0  0  0  0  0
    1.5958   -0.0638    0.0000 C   0  0  0  0  0  0  0  0  0  0  0  0
    0.8814   -0.4763    0.0000 C   0  0  0  0  0  0  0  0  0  0  0  0
    0.8814   -1.3014    0.0000 C   0  0  0  0  0  0  0  0  0  0  0  0
    2.3103   -1.3014    0.0000 C   0  0  0  0  0  0  0  0  0  0  0  0
    2.3103   -0.4763    0.0000 C   0  0  0  0  0  0  0  0  0  0  0  0
    3.0248   -4.1889    0.0000 O   0  0  0  0  0  0  0  0  0  0  0  0
  1  2  2  0  0  0  0
  1  6  1  0  0  0  0
  2  3  1  0  0  0  0
  3  4  2  0  0  0  0
  4  5  1  0  0  0  0
  4  7  1  0  0  0  0
  5  6  2  0  0  0  0
  7  8  2  0  0  0  0
  7  9  1  0  0  0  0
  9 10  1  0  0  0  0
 10 11  1  0  0  0  0
 11 12  1  0  0  0  0
 12 13  1  0  0  0  0
 13 14  2  0  0  0  0
 13 15  1  0  0  0  0
 16  1  1  1  0  0  0
 19 16  1  0  0  0  0
 16 20  1  0  0  0  0
 17 18  1  0  0  0  0
 18 19  1  0  0  0  0
 20 21  1  0  0  0  0
 17 21  1  0  0  0  0
 17 22  1  6  0  0  0
 25 22  2  0  0  0  0
 22 26  1  0  0  0  0
 23 24  2  0  0  0  0
 24 25  1  0  0  0  0
 26 27  2  0  0  0  0
 23 27  1  0  0  0  0
 20 28  1  6  0  0  0
M  END
> <ID>
CHEBI:43278

> <NAME>
(1S,2S,5S)-2-(4-glutaridylbenzyl)-5-phenylcyclohexan-1-ol

> <DEFINITION>
A γ-aminobutyric acid (GABA)-based hapten where a 4-substituted benzoyl group is attached to nitrogen.

> <STAR>
3

> <SYNONYM>
4-({4-[(1R,2S,4S)-2-hydroxy-4-phenylcyclohexyl]benzoyl}amino)butanoic acid; (1S,2S,5S)2-(4-GLUTARIDYLBENZYL)-5-PHENYL-1-CYCLOHEXANOL

> <IUPAC_NAME>
4-{4-[(1R,2S,4S)-2-hydroxy-4-phenylcyclohexyl]benzamido}butanoic acid

> <FORMULA>
C23H27NO4

> <MASS>
381.46480

> <MONOISOTOPIC_MASS>
381.19401

> <CHARGE>
0

> <SMILES>
O[C@H]1C[C@H](CC[C@@H]1c1ccc(cc1)C(=O)NCCCC(O)=O)c1ccccc1

> <INCHI>
InChI=1S/C23H27NO4/c25-21-15-19(16-5-2-1-3-6-16)12-13-20(21)17-8-10-18(11-9-17)23(28)24-14-4-7-22(26)27/h1-3,5-6,8-11,19-21,25H,4,7,12-15H2,(H,24,28)(H,26,27)/t19-,20+,21-/m0/s1

> <INCHIKEY>
OBWILOKKNDYPLX-HBMCJLEFSA-N

> <DRUGBANK_ACCESSION>
DB07909

> <PDB_ACCESSION>
1AXS

> <PDBECHEM_ACCESSION>
HOP

> <PUBMED_CITATION>
9305839

$$$$

Ketcher 05191615302D 1   1.00000     0.00000     0

 19 20  0     1  0            999 V2000
    6.5969   -8.0027    0.0000 C   0  0  0  0  0  0  0  0  0  0  0  0
    5.7309   -8.5078    0.0000 C   0  0  0  0  0  0  0  0  0  0  0  0
    4.8631   -8.0103    0.0000 C   0  0  0  0  0  0  0  0  0  0  0  0
    4.8598   -7.0081    0.0000 C   0  0  0  0  0  0  0  0  0  0  0  0
    5.7316   -6.5054    0.0000 C   0  0  0  0  0  0  0  0  0  0  0  0
    6.5958   -7.0055    0.0000 C   0  0  0  0  0  0  0  0  0  0  0  0
    7.4616   -6.5058    0.0000 C   0  0  0  0  0  0  0  0  0  0  0  0
    8.3273   -7.0057    0.0000 C   0  0  0  0  0  0  0  0  0  0  0  0
    9.1931   -6.5059    0.0000 C   0  0  0  0  0  0  0  0  0  0  0  0
   10.0588   -7.0059    0.0000 C   0  0  0  0  0  0  0  0  0  0  0  0
    7.4616   -5.5061    0.0000 C   0  0  0  0  0  0  0  0  0  0  0  0
    8.3274   -5.0063    0.0000 C   0  0  0  0  0  0  0  0  0  0  0  0
   10.9222   -6.5035    0.0000 C   0  0  0  0  0  0  0  0  0  0  0  0
   11.7874   -7.0025    0.0000 C   0  0  0  0  0  0  0  0  0  0  0  0
   11.7878   -8.0033    0.0000 C   0  0  0  0  0  0  0  0  0  0  0  0
   10.9158   -8.5029    0.0000 C   0  0  0  0  0  0  0  0  0  0  0  0
   10.0543   -8.0008    0.0000 C   0  0  0  0  0  0  0  0  0  0  0  0
   12.6527   -8.5044    0.0000 O   0  0  0  0  0  0  0  0  0  0  0  0
    3.9990   -8.5129    0.0000 O   0  0  0  0  0  0  0  0  0  0  0  0
  4  5  1  0     0  0
  9 10  1  0     0  0
  2  3  1  0     0  0
  7 11  1  1     0  0
  5  6  2  0     0  0
 11 12  2  0     0  0
  6  1  1  0     0  0
 10 13  2  0     0  0
  1  2  2  0     0  0
 13 14  1  0     0  0
  6  7  1  0     0  0
 14 15  2  0     0  0
  3  4  2  0     0  0
 15 16  1  0     0  0
  7  8  1  0     0  0
 16 17  2  0     0  0
 17 10  1  0     0  0
 15 18  1  0     0  0
  8  9  2  0     0  0
  3 19  1  0     0  0
M  END
> <ID>
CHEBI:435764

> <NAME>
(-)-hinokiresinol

> <DEFINITION>
A 1,3-bis(p-hydroxyphenyl)pentane-1,4-diene that has 1E,3S configuration. A natural product found in Chamaecyparis obtusa.

> <STAR>
3

> <SECONDARY_ID>
CHEBI:10484; CHEBI:69979

> <SYNONYM>
4-[(1E,3S)-3-(4-hydroxyphenyl)penta-1,4-dienyl]phenol

> <IUPAC_NAME>
4-[(1E,3S)-1-(4-hydroxyphenyl)penta-1,4-dien-3-yl]phenol

> <FORMULA>
C17H16O2

> <MASS>
252.30770

> <MONOISOTOPIC_MASS>
252.11503

> <CHARGE>
0

> <SMILES>
C=1C(=CC=C(C1)O)[C@@H](C=C)/C=C/C2=CC=C(C=C2)O

> <INCHI>
InChI=1S/C17H16O2/c1-2-14(15-7-11-17(19)12-8-15)6-3-13-4-9-16(18)10-5-13/h2-12,14,18-19H,1H2/b6-3+/t14-/m0/s1

> <INCHIKEY>
VEAUNWQYYMXIRB-ZRFDWSJLSA-N

> <BEILSTEIN_REGISTRY_NUMBER>
1971903

> <CAS_REGISTRY_NUMBER>
17676-24-3

> <CHEMIDPLUS>
17676-24-3

> <KEGG_COMPOUND_ACCESSION>
C10628

> <KNAPSACK_ACCESSION>
C00000722

> <PUBMED_CITATION>
10909263; 11684179; 14561517; 16309307; 16884819; 17051467; 17886842; 18093914; 20091263; 20165801

$$$$

Marvin  11090714292D          

 17 17  0  0  0  0            999 V2000
    0.8874   -0.6909    0.0000 C   0  0  0  0  0  0  0  0  0  0  0  0
    0.1729   -1.1034    0.0000 C   0  0  1  0  0  0  0  0  0  0  0  0
    0.1729   -1.9284    0.0000 O   0  0  0  0  0  0  0  0  0  0  0  0
   -0.5416   -0.6909    0.0000 C   0  0  1  0  0  0  0  0  0  0  0  0
   -1.2561   -1.1034    0.0000 O   0  0  0  0  0  0  0  0  0  0  0  0
    0.1729    0.5466    0.0000 O   0  0  0  0  0  0  0  0  0  0  0  0
   -1.2561    0.5466    0.0000 C   0  0  2  0  0  0  0  0  0  0  0  0
   -1.2561    1.3716    0.0000 O   0  0  0  0  0  0  0  0  0  0  0  0
   -1.9705    0.1341    0.0000 C   0  0  0  0  0  0  0  0  0  0  0  0
   -2.6850    0.5466    0.0000 O   0  0  0  0  0  0  0  0  0  0  0  0
   -0.5416    0.1341    0.0000 C   0  0  2  0  0  0  0  0  0  0  0  0
   -0.5416    0.9591    0.0000 H   0  0  0  0  0  0  0  0  0  0  0  0
    1.6018    1.3716    0.0000 O   0  0  0  0  0  0  0  0  0  0  0  0
    1.6018    0.5466    0.0000 C   0  0  0  0  0  0  0  0  0  0  0  0
    2.3163    0.1341    0.0000 O   0  0  0  0  0  0  0  0  0  0  0  0
    0.8874    0.1341    0.0000 C   0  0  1  0  0  0  0  0  0  0  0  0
    0.8874    0.9591    0.0000 O   0  0  0  0  0  0  0  0  0  0  0  0
 16  1  1  0  0  0  0
 16  6  1  0  0  0  0
  1  2  1  0  0  0  0
  2  3  1  1  0  0  0
  2  4  1  0  0  0  0
  4  5  1  1  0  0  0
  4 11  1  0  0  0  0
 11  6  1  0  0  0  0
 11  7  1  0  0  0  0
  7  8  1  1  0  0  0
  7  9  1  0  0  0  0
  9 10  1  0  0  0  0
 11 12  1  6  0  0  0
 16 14  1  0  0  0  0
 14 13  2  0  0  0  0
 14 15  1  0  0  0  0
 16 17  1  6  0  0  0
M  END
> <ID>
CHEBI:43577

> <NAME>
3-deoxy-alpha-D-manno-oct-2-ulopyranosonic acid

> <DEFINITION>
The α-anomer of 3-deoxy-D-manno-oct-2-ulopyranosonic acid.

> <STAR>
3

> <SYNONYM>
Kdo; alpha-KDop; alpha-Kdo; alpha-2-keto-3-deoxyoctulosonic acid pyranose; 3-DEOXY-D-MANNO-OCT-2-ULOSONIC ACID

> <IUPAC_NAME>
3-deoxy-alpha-D-manno-oct-2-ulopyranosonic acid

> <FORMULA>
C8H14O8

> <MASS>
238.19196

> <MONOISOTOPIC_MASS>
238.06887

> <CHARGE>
0

> <SMILES>
[H][C@@]1(O[C@](O)(C[C@@H](O)[C@H]1O)C(O)=O)[C@H](O)CO

> <INCHI>
InChI=1S/C8H14O8/c9-2-4(11)6-5(12)3(10)1-8(15,16-6)7(13)14/h3-6,9-12,15H,1-2H2,(H,13,14)/t3-,4-,5-,6-,8-/m1/s1

> <INCHIKEY>
NNLZBVFSCVTSLA-HXUQBWEZSA-N

> <BEILSTEIN_REGISTRY_NUMBER>
4843253

> <REAXYS_REGISTRY_NUMBER>
4234215

> <DRUGBANK_ACCESSION>
DB03548

> <PDBECHEM_ACCESSION>
KDO

> <PUBMED_CITATION>
16966407; 27173798

$$$$

Marvin  11301014362D          

  9  9  0  0  0  0            999 V2000
   10.3701   -4.5143    0.0000 N   0  0  0  0  0  0  0  0  0  0  0  0
   11.0848   -4.1018    0.0000 C   0  0  0  0  0  0  0  0  0  0  0  0
    9.6557   -4.1018    0.0000 C   0  0  0  0  0  0  0  0  0  0  0  0
   11.0848   -3.2768    0.0000 N   0  0  0  0  0  0  0  0  0  0  0  0
   11.7992   -4.5143    0.0000 O   0  0  0  0  0  0  0  0  0  0  0  0
    9.6557   -3.2768    0.0000 C   0  0  0  0  0  0  0  0  0  0  0  0
   10.3701   -2.8643    0.0000 C   0  0  0  0  0  0  0  0  0  0  0  0
   10.3701   -2.0393    0.0000 O   0  0  0  0  0  0  0  0  0  0  0  0
    8.9413   -2.8643    0.0000 I   0  0  0  0  0  0  0  0  0  0  0  0
  1  2  1  0  0  0  0
  1  3  1  0  0  0  0
  2  4  1  0  0  0  0
  2  5  2  0  0  0  0
  3  6  2  0  0  0  0
  4  7  1  0  0  0  0
  7  8  2  0  0  0  0
  6  7  1  0  0  0  0
  6  9  1  0  0  0  0
M  END
> <ID>
CHEBI:43636

> <NAME>
5-iodouracil

> <DEFINITION>
An organoiodine compound consisting of uracil having an iodo substituent at the 5-position.

> <STAR>
3

> <IUPAC_NAME>
5-iodopyrimidine-2,4(1H,3H)-dione

> <FORMULA>
C4H3IN2O2

> <MASS>
237.98330

> <MONOISOTOPIC_MASS>
237.92392

> <CHARGE>
0

> <SMILES>
Ic1c[nH]c(=O)[nH]c1=O

> <INCHI>
InChI=1S/C4H3IN2O2/c5-2-1-6-4(9)7-3(2)8/h1H,(H2,6,7,8,9)

> <INCHIKEY>
KSNXJLQDQOIRIP-UHFFFAOYSA-N

> <CAS_REGISTRY_NUMBER>
696-07-1

> <REAXYS_REGISTRY_NUMBER>
4891

> <CHEMIDPLUS>
696-07-1

> <DRUGBANK_ACCESSION>
DB03554

> <NIST_CHEMISTRY_WEBBOOK>
696-07-1

> <PDBECHEM_ACCESSION>
IUR

> <PUBMED_CITATION>
10513989; 2976090; 3007759; 3950402

$$$$

Ketcher 11091610552D 1   1.00000     0.00000     0

 20 20  0     0  0            999 V2000
    1.9286    1.2500    0.0000 O   0  0  0  0  0  0  0  0  0  0  0  0
    1.0625    0.7501    0.0000 C   0  0  0  0  0  0  0  0  0  0  0  0
    1.0625   -0.2501    0.0000 C   0  0  0  0  0  0  0  0  0  0  0  0
    1.9286   -0.7501    0.0000 C   0  0  0  0  0  0  0  0  0  0  0  0
    2.7945   -0.2501    0.0000 C   0  0  0  0  0  0  0  0  0  0  0  0
    2.7945    0.7501    0.0000 C   0  0  0  0  0  0  0  0  0  0  0  0
    3.6606    1.2500    0.0000 O   0  0  0  0  0  0  0  0  0  0  0  0
    0.1965   -0.7501    0.0000 N   0  0  0  0  0  0  0  0  0  0  0  0
    3.6606   -0.7501    0.0000 O   0  0  0  0  0  0  0  0  0  0  0  0
    1.9286   -1.7500    0.0000 O   0  0  0  0  0  0  0  0  0  0  0  0
    0.1965    1.2500    0.0000 C   0  0  0  0  0  0  0  0  0  0  0  0
   -0.6694   -0.2501    0.0000 C   0  0  0  0  0  0  0  0  0  0  0  0
   -1.5355   -0.7501    0.0000 C   0  0  0  0  0  0  0  0  0  0  0  0
   -2.4015   -0.2501    0.0000 C   0  0  0  0  0  0  0  0  0  0  0  0
   -0.6694    0.7499    0.0000 O   0  0  0  0  0  0  0  0  0  0  0  0
   -1.5355   -1.7500    0.0000 O   0  0  0  0  0  0  0  0  0  0  0  0
   -3.2675   -0.7501    0.0000 C   0  0  0  0  0  0  0  0  0  0  0  0
   -4.1335   -0.2501    0.0000 O   0  0  0  0  0  0  0  0  0  0  0  0
    3.6606   -1.7500    0.0000 C   0  0  0  0  0  0  0  0  0  0  0  0
    4.5267    0.7500    0.0000 C   0  0  0  0  0  0  0  0  0  0  0  0
  1  2  1  0     0  0
  1  6  1  0     0  0
  2  3  1  0     0  0
  3  4  1  0     0  0
  4  5  1  0     0  0
  5  6  1  0     0  0
  6  7  1  6     0  0
  3  8  1  6     0  0
  5  9  1  1     0  0
  4 10  1  1     0  0
  2 11  1  1     0  0
  8 12  1  0     0  0
 12 13  1  0     0  0
 13 14  1  0     0  0
 12 15  2  0     0  0
 13 16  1  1     0  0
 14 17  1  0     0  0
 17 18  1  0     0  0
  9 19  1  0     0  0
  7 20  1  0     0  0
M  END
> <ID>
CHEBI:43892

> <NAME>
methyl 4,6-dideoxy-4-(3-deoxy-L-glycero-tetronamido)-2-O-methyl-alpha-D-mannopyranoside

> <DEFINITION>
An N-acyl-hexosamine that is the methyl α-glycoside of the terminal moiety, and presumed antigenic determinant, of the O-specific polysaccharide of Vibrio cholerae O:1, serotype Ogawa.

> <STAR>
3

> <SECONDARY_ID>
CHEBI:59239

> <SYNONYM>
methyl 4,6-dideoxy-4-{[(2S)-2,4-dihydroxybutanoyl]amino}-2-O-methyl-alpha-D-mannopyranoside; 1,2-O-DIMETHYL-4-[2,4-DIHYDROXY-BUTYRAMIDO]-4,6-DIDEOXY-ALPHA-D-MANNOPYRANOSIDE; 1,2-di-O-methyl-4-[(2S)-2,4-dihydroxybutyramido]-4-deoxy-alpha-D-rhamnopyranoside

> <IUPAC_NAME>
methyl 4,6-dideoxy-4-[(2S)-2,4-dihydroxybutanamido]-2-O-methyl-alpha-D-mannopyranoside

> <FORMULA>
C12H23NO7

> <MASS>
293.314

> <MONOISOTOPIC_MASS>
293.14745

> <CHARGE>
0

> <SMILES>
O1[C@@H]([C@H]([C@@H]([C@@H]([C@H]1OC)OC)O)NC([C@H](CCO)O)=O)C

> <INCHI>
InChI=1S/C12H23NO7/c1-6-8(13-11(17)7(15)4-5-14)9(16)10(18-2)12(19-3)20-6/h6-10,12,14-16H,4-5H2,1-3H3,(H,13,17)/t6-,7+,8-,9+,10+,12+/m1/s1

> <INCHIKEY>
NGGZJRAGGXAXNO-RPBIHCLYSA-N

> <REAXYS_REGISTRY_NUMBER>
7414126

> <PDBECHEM_ACCESSION>
MGS

> <PUBMED_CITATION>
10880560; 7585718

$$$$

Marvin  02140711222D          

 13 13  0  0  0  0            999 V2000
   -0.3437    1.2313    0.0000 O   0  0  0  0  0  0  0  0  0  0  0  0
    0.3707    0.8188    0.0000 C   0  0  1  0  0  0  0  0  0  0  0  0
   -1.0582   -0.0063    0.0000 C   0  0  1  0  0  0  0  0  0  0  0  0
   -1.7727   -0.4188    0.0000 O   0  0  0  0  0  0  0  0  0  0  0  0
    0.3707   -0.0063    0.0000 C   0  0  1  0  0  0  0  0  0  0  0  0
    1.0852   -0.4188    0.0000 O   0  0  0  0  0  0  0  0  0  0  0  0
   -0.3437   -0.4188    0.0000 C   0  0  1  0  0  0  0  0  0  0  0  0
   -0.3437   -1.2438    0.0000 O   0  0  0  0  0  0  0  0  0  0  0  0
   -1.0582    0.8188    0.0000 C   0  0  1  0  0  0  0  0  0  0  0  0
   -1.7727    1.2313    0.0000 C   0  0  0  0  0  0  0  0  0  0  0  0
   -2.4872    0.8188    0.0000 O   0  0  0  0  0  0  0  0  0  0  0  0
    1.0852    1.2313    0.0000 O   0  0  0  0  0  0  0  0  0  0  0  0
    1.7997    0.8188    0.0000 C   0  0  0  0  0  0  0  0  0  0  0  0
  1  9  1  0  0  0  0
  1  2  1  0  0  0  0
  9  3  1  0  0  0  0
  3  7  1  0  0  0  0
  7  5  1  0  0  0  0
  5  2  1  0  0  0  0
  2 12  1  6  0  0  0
  3  4  1  6  0  0  0
  5  6  1  1  0  0  0
  7  8  1  1  0  0  0
  9 10  1  1  0  0  0
 10 11  1  0  0  0  0
 12 13  1  0  0  0  0
M  END
> <ID>
CHEBI:43943

> <NAME>
methyl alpha-D-mannoside

> <DEFINITION>
A methyl mannoside having α-configuration at the anomeric centre.

> <STAR>
3

> <SECONDARY_ID>
CHEBI:37652; CHEBI:44005; CHEBI:43940

> <SYNONYM>
Methyl-alpha-D-mannoside; alpha-methyl-D-mannoside; alpha-Methyl mannopyranoside; 1-O-Methyl-alpha-D-mannopyranoside

> <IUPAC_NAME>
methyl alpha-D-mannopyranoside

> <FORMULA>
C7H14O6

> <MASS>
194.18246

> <MONOISOTOPIC_MASS>
194.07904

> <CHARGE>
0

> <SMILES>
CO[C@H]1O[C@H](CO)[C@@H](O)[C@H](O)[C@@H]1O

> <INCHI>
InChI=1S/C7H14O6/c1-12-7-6(11)5(10)4(9)3(2-8)13-7/h3-11H,2H2,1H3/t3-,4-,5+,6+,7+/m1/s1

> <INCHIKEY>
HOVAGTYPODGVJG-VEIUFWFVSA-N

> <BEILSTEIN_REGISTRY_NUMBER>
81566

> <CAS_REGISTRY_NUMBER>
25281-48-5

> <REAXYS_REGISTRY_NUMBER>
81566

> <CHEMIDPLUS>
25281-48-5

> <DRUGBANK_ACCESSION>
DB01979

> <METACYC_ACCESSION>
CPD-3612

> <PDBECHEM_ACCESSION>
MMA

> <PUBMED_CITATION>
11991954; 15953573; 17348680; 18823619; 18990567; 19277150; 19783018; 19846069; 19856360; 20096904; 20507142; 2860067; 7068763; 8593952

$$$$

Marvin  09211015172D          

 25 27  0  0  1  0            999 V2000
    2.8984    5.6343    0.0000 N   0  0  0  0  0  0  0  0  0  0  0  0
    2.8984    4.8093    0.0000 C   0  0  0  0  0  0  0  0  0  0  0  0
    2.1839    4.3968    0.0000 N   0  0  0  0  0  0  0  0  0  0  0  0
    2.1838    3.5718    0.0000 C   0  0  0  0  0  0  0  0  0  0  0  0
    2.8983    3.1593    0.0000 N   0  0  0  0  0  0  0  0  0  0  0  0
    3.6128    3.5718    0.0000 C   0  0  0  0  0  0  0  0  0  0  0  0
    3.6128    4.3968    0.0000 C   0  0  0  0  0  0  0  0  0  0  0  0
    4.3974    4.6517    0.0000 N   0  0  0  0  0  0  0  0  0  0  0  0
    4.8824    3.9842    0.0000 C   0  0  0  0  0  0  0  0  0  0  0  0
    4.3974    3.3168    0.0000 N   0  0  0  0  0  0  0  0  0  0  0  0
    4.6524    2.5320    0.0000 C   0  0  2  0  0  0  0  0  0  0  0  0
    4.1674    1.8647    0.0000 O   0  0  0  0  0  0  0  0  0  0  0  0
    4.6523    1.1971    0.0000 C   0  0  1  0  0  0  0  0  0  0  0  0
    5.4369    1.4521    0.0000 C   0  0  1  0  0  0  0  0  0  0  0  0
    6.1044    0.9671    0.0000 O   0  0  0  0  0  0  0  0  0  0  0  0
    5.4370    2.2771    0.0000 C   0  0  1  0  0  0  0  0  0  0  0  0
    6.1044    2.7620    0.0000 O   0  0  0  0  0  0  0  0  0  0  0  0
    3.5723    0.4125    0.0000 O   0  0  0  0  0  0  0  0  0  0  0  0
    2.8578   -0.8250    0.0000 O   0  0  0  0  0  0  0  0  0  0  0  0
    2.8578    0.0000    0.0000 P   0  0  0  0  0  0  0  0  0  0  0  0
    2.8578    0.8250    0.0000 O   0  0  0  0  0  0  0  0  0  0  0  0
    2.1434    0.4125    0.0000 O   0  0  0  0  0  0  0  0  0  0  0  0
    4.3973    0.4125    0.0000 C   0  0  0  0  0  0  0  0  0  0  0  0
    3.6129    6.0468    0.0000 C   0  0  0  0  0  0  0  0  0  0  0  0
    2.1839    6.0468    0.0000 C   0  0  0  0  0  0  0  0  0  0  0  0
  1  2  1  0  0  0  0
  2  3  2  0  0  0  0
  2  7  1  0  0  0  0
  3  4  1  0  0  0  0
  4  5  2  0  0  0  0
  5  6  1  0  0  0  0
  6  7  2  0  0  0  0
  6 10  1  0  0  0  0
  7  8  1  0  0  0  0
  8  9  2  0  0  0  0
  9 10  1  0  0  0  0
 11 10  1  1  0  0  0
 11 12  1  0  0  0  0
 11 16  1  0  0  0  0
 12 13  1  0  0  0  0
 13 23  1  1  0  0  0
 13 14  1  0  0  0  0
 14 15  1  6  0  0  0
 14 16  1  0  0  0  0
 16 17  1  6  0  0  0
 18 20  1  0  0  0  0
 20 19  2  0  0  0  0
 20 22  1  0  0  0  0
 20 21  1  0  0  0  0
 23 18  1  0  0  0  0
  1 24  1  0  0  0  0
  1 25  1  0  0  0  0
M  END
> <ID>
CHEBI:43986

> <NAME>
N(6),N(6)-dimethyl-AMP

> <DEFINITION>
A  purine ribonucleoside 5'-monophosphate that is adenosine 5'-monophosphate substituted on N-6 by geminal methyl groups.

> <STAR>
3

> <SYNONYM>
N(6)-dimethyl-AMP; N(6)-dimethyl AMP; N(6),N(6)-Dimethyl-[5']adenylsaeure; N(6),N(6)-dimethyl-[5']adenylic acid; 6N-DIMETHYLADENOSINE-5'-MONOPHOSHATE

> <IUPAC_NAME>
N,N-dimethyladenosine 5'-(dihydrogen phosphate)

> <FORMULA>
C12H18N5O7P

> <MASS>
375.27440

> <MONOISOTOPIC_MASS>
375.09438

> <CHARGE>
0

> <SMILES>
CN(C)c1ncnc2n(cnc12)[C@@H]1O[C@H](COP(O)(O)=O)[C@@H](O)[C@H]1O

> <INCHI>
InChI=1S/C12H18N5O7P/c1-16(2)10-7-11(14-4-13-10)17(5-15-7)12-9(19)8(18)6(24-12)3-23-25(20,21)22/h4-6,8-9,12,18-19H,3H2,1-2H3,(H2,20,21,22)/t6-,8-,9-,12-/m1/s1

> <INCHIKEY>
OWRDTHWSVNWFAZ-WOUKDFQISA-N

> <BEILSTEIN_REGISTRY_NUMBER>
59646

> <PDBECHEM_ACCESSION>
MA6

> <PUBMED_CITATION>
323854

$$$$

Marvin  10111013332D          

 12 12  0  0  1  0            999 V2000
   17.5413   -5.8094    0.0000 O   0  0  0  0  0  0  0  0  0  0  0  0
   17.5411   -7.4591    0.0000 O   0  0  0  0  0  0  0  0  0  0  0  0
   16.8266   -6.2198    0.0000 C   0  0  1  0  0  0  0  0  0  0  0  0
   16.8266   -7.0448    0.0000 C   0  0  1  0  0  0  0  0  0  0  0  0
   16.1045   -5.8092    0.0000 O   0  0  0  0  0  0  0  0  0  0  0  0
   16.1042   -7.4590    0.0000 C   0  0  1  0  0  0  0  0  0  0  0  0
   15.3860   -6.2197    0.0000 C   0  0  2  0  0  0  0  0  0  0  0  0
   15.3860   -7.0446    0.0000 C   0  0  2  0  0  0  0  0  0  0  0  0
   16.1079   -8.2876    0.0000 O   0  0  0  0  0  0  0  0  0  0  0  0
   14.6791   -5.8091    0.0000 C   0  0  0  0  0  0  0  0  0  0  0  0
   14.6788   -7.4589    0.0000 O   0  0  0  0  0  0  0  0  0  0  0  0
   15.3953   -8.7033    0.0000 C   0  0  0  0  0  0  0  0  0  0  0  0
  3  1  1  1  0  0  0
  3  4  1  0  0  0  0
  3  5  1  0  0  0  0
  4  6  1  0  0  0  0
  4  2  1  6  0  0  0
  5  7  1  0  0  0  0
  6  8  1  0  0  0  0
  6  9  1  6  0  0  0
  7 10  1  6  0  0  0
  8 11  1  1  0  0  0
  7  8  1  0  0  0  0
  9 12  1  0  0  0  0
M  END
> <ID>
CHEBI:44042

> <NAME>
3-O-methyl-alpha-L-rhamnose

> <DEFINITION>
A monosaccharide derivative that is the 3-O-methyl derivative of α-L-rhamnopyranose. An epitope identified from the glycolipids isolated from Mycobacterium peregrinum.

> <STAR>
3

> <SYNONYM>
6-deoxy-3-O-methyl-alpha-L-mannopyranose; 3MeRha; 3Me-L-Rha

> <IUPAC_NAME>
3-O-methyl-alpha-L-rhamnopyranose

> <FORMULA>
C7H14O5

> <MASS>
178.18310

> <MONOISOTOPIC_MASS>
178.08412

> <CHARGE>
0

> <SMILES>
CO[C@@H]1[C@@H](O)[C@H](C)O[C@@H](O)[C@@H]1O

> <INCHI>
InChI=1S/C7H14O5/c1-3-4(8)6(11-2)5(9)7(10)12-3/h3-10H,1-2H3/t3-,4-,5+,6+,7+/m0/s1

> <INCHIKEY>
OEKPKBBXXDGXNB-PAMBMQIZSA-N

> <BEILSTEIN_REGISTRY_NUMBER>
2205581

> <REAXYS_REGISTRY_NUMBER>
2205581

> <PDBECHEM_ACCESSION>
MRP

> <PUBMED_CITATION>
8025677

$$$$

Marvin  05271016572D          

 43 47  0  0  0  0            999 V2000
    9.7940  -10.1689    0.0000 C   0  0  0  0  0  0  0  0  0  0  0  0
   10.2684   -9.5203    0.0000 C   0  0  0  0  0  0  0  0  0  0  0  0
    9.9359   -8.7500    0.0000 C   0  0  0  0  0  0  0  0  0  0  0  0
    8.9832  -10.0878    0.0000 O   0  0  0  0  0  0  0  0  0  0  0  0
   10.1264  -10.9391    0.0000 O   0  0  0  0  0  0  0  0  0  0  0  0
    7.1183   -7.8541    0.0000 C   0  0  0  0  0  0  0  0  0  0  0  0
    7.7833   -7.3474    0.0000 C   0  0  0  0  0  0  0  0  0  0  0  0
    7.6981   -6.5609    0.0000 C   0  0  0  0  0  0  0  0  0  0  0  0
    6.3766   -7.4933    0.0000 O   0  0  0  0  0  0  0  0  0  0  0  0
    7.2036   -8.6406    0.0000 O   0  0  0  0  0  0  0  0  0  0  0  0
   12.2711   -7.1001    0.0000 C   0  0  0  0  0  0  0  0  0  0  0  0
   12.5143   -6.3055    0.0000 C   0  0  0  0  0  0  0  0  0  0  0  0
   11.5129   -7.3109    0.0000 C   0  0  0  0  0  0  0  0  0  0  0  0
   12.0075   -5.6407    0.0000 N   0  0  0  0  0  0  0  0  0  0  0  0
   13.2764   -6.0542    0.0000 C   0  0  0  0  0  0  0  0  0  0  0  0
   13.2764   -5.2353    0.0000 C   0  0  0  0  0  0  0  0  0  0  0  0
   12.4859   -4.9516    0.0000 C   0  0  0  0  0  0  0  0  0  0  0  0
   12.2792   -4.1529    0.0000 C   0  0  0  0  0  0  0  0  0  0  0  0
   11.4806   -3.9502    0.0000 C   0  0  0  0  0  0  0  0  0  0  0  0
   10.8157   -4.4569    0.0000 N   0  0  0  0  0  0  0  0  0  0  0  0
   11.2293   -3.1881    0.0000 C   0  0  0  0  0  0  0  0  0  0  0  0
   10.1266   -3.9785    0.0000 C   0  0  0  0  0  0  0  0  0  0  0  0
   10.4103   -3.1881    0.0000 C   0  0  0  0  0  0  0  0  0  0  0  0
    9.3684   -4.1893    0.0000 C   0  0  0  0  0  0  0  0  0  0  0  0
    9.1657   -4.9880    0.0000 C   0  0  0  0  0  0  0  0  0  0  0  0
    9.6319   -5.6487    0.0000 N   0  0  0  0  0  0  0  0  0  0  0  0
    9.1535   -6.3379    0.0000 C   0  0  0  0  0  0  0  0  0  0  0  0
    8.3630   -6.0541    0.0000 C   0  0  0  0  0  0  0  0  0  0  0  0
    8.3630   -5.2352    0.0000 C   0  0  0  0  0  0  0  0  0  0  0  0
    9.3643   -7.0960    0.0000 C   0  0  0  0  0  0  0  0  0  0  0  0
   10.1630   -7.2987    0.0000 C   0  0  0  0  0  0  0  0  0  0  0  0
   10.8238   -6.8325    0.0000 N   0  0  0  0  0  0  0  0  0  0  0  0
   11.2292   -8.1015    0.0000 C   0  0  0  0  0  0  0  0  0  0  0  0
   10.4102   -8.1015    0.0000 C   0  0  0  0  0  0  0  0  0  0  0  0
   11.7076   -2.4988    0.0000 C   0  0  0  0  0  0  0  0  0  0  0  0
   11.3711   -1.7692    0.0000 C   0  0  0  0  0  0  0  0  0  0  0  0
   13.9656   -6.5325    0.0000 C   0  0  0  0  0  0  0  0  0  0  0  0
   14.6994   -6.1555    0.0000 C   0  0  0  0  0  0  0  0  0  0  0  0
    7.6739   -4.7569    0.0000 C   0  0  0  0  0  0  0  0  0  0  0  0
    9.9076   -2.4826    0.0000 C   0  0  0  0  0  0  0  0  0  0  0  0
   13.9414   -4.7286    0.0000 C   0  0  0  0  0  0  0  0  0  0  0  0
   11.7359   -8.7663    0.0000 C   0  0  0  0  0  0  0  0  0  0  0  0
   10.8156   -5.2758    0.0000 C   0  0  0  0  0  0  0  0  0  0  0  0
  2  1  1  0  0  0  0
  5  1  1  0  0  0  0
  4  1  2  0  0  0  0
  3  2  1  0  0  0  0
 34  3  1  0  0  0  0
  7  6  1  0  0  0  0
 10  6  1  0  0  0  0
  9  6  2  0  0  0  0
  8  7  1  0  0  0  0
 28  8  1  0  0  0  0
 12 11  1  0  0  0  0
 13 11  2  0  0  0  0
 15 12  1  0  0  0  0
 14 12  2  0  0  0  0
 32 13  1  0  0  0  0
 33 13  1  0  0  0  0
 17 14  1  0  0  0  0
 16 15  2  0  0  0  0
 37 15  1  0  0  0  0
 17 16  1  0  0  0  0
 41 16  1  0  0  0  0
 18 17  2  0  0  0  0
 19 18  1  0  0  0  0
 20 19  1  0  0  0  0
 21 19  2  0  0  0  0
 22 20  1  0  0  0  0
 43 20  1  0  0  0  0
 23 21  1  0  0  0  0
 35 21  1  0  0  0  0
 23 22  2  0  0  0  0
 24 22  1  0  0  0  0
 40 23  1  0  0  0  0
 25 24  2  0  0  0  0
 26 25  1  0  0  0  0
 29 25  1  0  0  0  0
 27 26  2  0  0  0  0
 28 27  1  0  0  0  0
 30 27  1  0  0  0  0
 29 28  2  0  0  0  0
 39 29  1  0  0  0  0
 31 30  2  0  0  0  0
 32 31  1  0  0  0  0
 34 31  1  0  0  0  0
 34 33  2  0  0  0  0
 42 33  1  0  0  0  0
 36 35  1  0  0  0  0
 38 37  1  0  0  0  0
M  END
> <ID>
CHEBI:44085

> <NAME>
N-methylmesoporphyrin

> <DEFINITION>
A mesoporphyrin with an N-methyl substituent at the 22-position.

> <STAR>
3

> <SYNONYM>
N-methylmesoporphyrin IX; N-METHYLMESOPORPHYRIN; 3,3'-(8,13-diethyl-3,7,12,17,22-pentamethylporphyrin-2,18-diyl)dipropanoic acid

> <IUPAC_NAME>
3,3'-(8,13-diethyl-3,7,12,17,22-pentamethyl-22,24-dihydroporphyrin-2,18-diyl)dipropanoic acid

> <FORMULA>
C35H40N4O4

> <MASS>
580.71650

> <MONOISOTOPIC_MASS>
580.30496

> <CHARGE>
0

> <SMILES>
CCc1c(C)c2cc3c(CC)c(C)c(cc4nc(cc5[nH]c(cc1n2)c(C)c5CCC(O)=O)c(CCC(O)=O)c4C)n3C

> <INCHI>
InChI=1S/C35H40N4O4/c1-8-22-18(3)28-17-33-23(9-2)21(6)32(39(33)7)16-27-20(5)25(11-13-35(42)43)31(38-27)15-30-24(10-12-34(40)41)19(4)26(36-30)14-29(22)37-28/h14-17,36H,8-13H2,1-7H3,(H,40,41)(H,42,43)/b26-14-,27-16-,28-17-,29-14-,30-15-,31-15-,32-16-,33-17-

> <INCHIKEY>
YNWHQWMCLCANDI-YIYRCNGCSA-N

> <REAXYS_REGISTRY_NUMBER>
9980853

> <DRUGBANK_ACCESSION>
DB01911

> <PDB_ACCESSION>
1NGW

> <PDBECHEM_ACCESSION>
MMP

> <PUBMED_CITATION>
12552112; 15600337

$$$$

Marvin  09281010352D          

 16 16  0  0  1  0            999 V2000
    9.3663   -3.8308    0.0000 O   0  0  0  0  0  0  0  0  0  0  0  0
   10.0808   -4.2433    0.0000 C   0  0  1  0  0  0  0  0  0  0  0  0
    9.3663   -5.4809    0.0000 C   0  0  1  0  0  0  0  0  0  0  0  0
    9.3663   -6.3058    0.0000 O   0  0  0  0  0  0  0  0  0  0  0  0
    8.6518   -5.0684    0.0000 C   0  0  1  0  0  0  0  0  0  0  0  0
    7.9374   -5.4809    0.0000 O   0  0  0  0  0  0  0  0  0  0  0  0
    8.6518   -4.2433    0.0000 C   0  0  1  0  0  0  0  0  0  0  0  0
    7.9374   -3.8308    0.0000 C   0  0  0  0  0  0  0  0  0  0  0  0
    7.2229   -4.2433    0.0000 O   0  0  0  0  0  0  0  0  0  0  0  0
   10.0808   -5.0684    0.0000 C   0  0  1  0  0  0  0  0  0  0  0  0
   10.7952   -5.4809    0.0000 N   0  0  0  0  0  0  0  0  0  0  0  0
   10.0808   -6.7184    0.0000 O   0  0  0  0  0  0  0  0  0  0  0  0
   10.7952   -6.3058    0.0000 C   0  0  0  0  0  0  0  0  0  0  0  0
   11.5097   -6.7184    0.0000 C   0  0  0  0  0  0  0  0  0  0  0  0
   10.7952   -3.8308    0.0000 O   0  0  0  0  0  0  0  0  0  0  0  0
   11.5097   -4.2433    0.0000 C   0  0  0  0  0  0  0  0  0  0  0  0
  1  7  1  0  0  0  0
  1  2  1  0  0  0  0
  7  5  1  0  0  0  0
  5  3  1  0  0  0  0
  3 10  1  0  0  0  0
 10  2  1  0  0  0  0
  2 15  1  6  0  0  0
  3  4  1  1  0  0  0
  5  6  1  1  0  0  0
  7  8  1  1  0  0  0
  8  9  1  0  0  0  0
 10 11  1  6  0  0  0
 11 13  1  0  0  0  0
 13 12  2  0  0  0  0
 13 14  1  0  0  0  0
 15 16  1  0  0  0  0
M  END
> <ID>
CHEBI:44096

> <NAME>
methyl N-acetyl-alpha-D-galactosaminide

> <DEFINITION>
An N-acetyl-α-D-galactosaminide having a methyl substituent at the anomeric position.

> <STAR>
3

> <SYNONYM>
methyl N-acetyl-alpha-D-galactosaminide; methyl 2-(acetylamino)-2-deoxy-alpha-D-galactopyranoside; GalNAcalpha1->OMe; alphaGalNAcOMe; alpha-D-GalpNAc-OMe; alpha-D-GalNAc-OMe

> <IUPAC_NAME>
methyl 2-acetamido-2-deoxy-alpha-D-galactopyranoside

> <FORMULA>
C9H17NO6

> <MASS>
235.23440

> <MONOISOTOPIC_MASS>
235.10559

> <CHARGE>
0

> <SMILES>
CO[C@H]1O[C@H](CO)[C@H](O)[C@H](O)[C@H]1NC(C)=O

> <INCHI>
InChI=1S/C9H17NO6/c1-4(12)10-6-8(14)7(13)5(3-11)16-9(6)15-2/h5-9,11,13-14H,3H2,1-2H3,(H,10,12)/t5-,6-,7+,8-,9+/m1/s1

> <INCHIKEY>
ZEVOCXOZYFLVKN-ZEBDFXRSSA-N

> <BEILSTEIN_REGISTRY_NUMBER>
85904

> <CAS_REGISTRY_NUMBER>
6082-22-0

> <REAXYS_REGISTRY_NUMBER>
85904

> <PDBECHEM_ACCESSION>
MGC

> <PUBMED_CITATION>
19913595

$$$$

Marvin  11150714582D          

 33 35  0  0  1  0            999 V2000
   -1.6888   -2.1500    0.0000 C   0  0  0  0  0  0  0  0  0  0  0  0
   -1.6888   -1.3250    0.0000 N   0  0  0  0  0  0  0  0  0  0  0  0
   -2.4032   -0.9125    0.0000 C   0  0  0  0  0  0  0  0  0  0  0  0
   -3.1177   -1.3250    0.0000 C   0  0  0  0  0  0  0  0  0  0  0  0
   -3.1177   -2.1500    0.0000 C   0  0  0  0  0  0  0  0  0  0  0  0
   -3.8322   -2.5625    0.0000 N   0  0  0  0  0  0  0  0  0  0  0  0
   -4.5467   -2.1500    0.0000 C   0  0  0  0  0  0  0  0  0  0  0  0
   -5.2611   -2.5625    0.0000 N   0  0  0  0  0  0  0  0  0  0  0  0
   -5.9756   -2.1500    0.0000 C   0  0  0  0  0  0  0  0  0  0  0  0
   -6.6901   -2.5625    0.0000 N   0  0  0  0  0  0  0  0  0  0  0  0
   -5.9756   -1.3250    0.0000 N   0  0  0  0  0  0  0  0  0  0  0  0
   -5.2611   -0.9125    0.0000 C   0  0  0  0  0  0  0  0  0  0  0  0
   -5.2611   -0.0875    0.0000 N   0  0  0  0  0  0  0  0  0  0  0  0
   -4.5467   -1.3250    0.0000 C   0  0  0  0  0  0  0  0  0  0  0  0
   -3.8322   -0.9125    0.0000 N   0  0  0  0  0  0  0  0  0  0  0  0
   -0.9743   -0.9125    0.0000 C   0  0  0  0  0  0  0  0  0  0  0  0
   -0.9743   -0.0875    0.0000 C   0  0  0  0  0  0  0  0  0  0  0  0
   -0.2598    0.3250    0.0000 C   0  0  0  0  0  0  0  0  0  0  0  0
    0.4546   -0.0875    0.0000 C   0  0  0  0  0  0  0  0  0  0  0  0
    0.4546   -0.9125    0.0000 C   0  0  0  0  0  0  0  0  0  0  0  0
   -0.2598   -1.3250    0.0000 C   0  0  0  0  0  0  0  0  0  0  0  0
    1.1691    0.3250    0.0000 C   0  0  0  0  0  0  0  0  0  0  0  0
    1.1691    1.1500    0.0000 O   0  0  0  0  0  0  0  0  0  0  0  0
    1.8836   -0.0875    0.0000 N   0  0  0  0  0  0  0  0  0  0  0  0
    2.5980    0.3250    0.0000 C   0  0  1  0  0  0  0  0  0  0  0  0
    2.5980    1.1500    0.0000 C   0  0  0  0  0  0  0  0  0  0  0  0
    3.3125   -0.0875    0.0000 C   0  0  0  0  0  0  0  0  0  0  0  0
    3.3125   -0.9125    0.0000 O   0  0  0  0  0  0  0  0  0  0  0  0
    4.0270    0.3250    0.0000 O   0  0  0  0  0  0  0  0  0  0  0  0
    3.3125    1.5625    0.0000 C   0  0  0  0  0  0  0  0  0  0  0  0
    2.5980    2.8000    0.0000 O   0  0  0  0  0  0  0  0  0  0  0  0
    3.3125    2.3875    0.0000 C   0  0  0  0  0  0  0  0  0  0  0  0
    4.0269    2.8000    0.0000 O   0  0  0  0  0  0  0  0  0  0  0  0
  1  2  1  0  0  0  0
  2  3  1  0  0  0  0
  2 16  1  0  0  0  0
  3  4  1  0  0  0  0
  4  5  2  0  0  0  0
  4 15  1  0  0  0  0
  5  6  1  0  0  0  0
  6  7  2  0  0  0  0
  7  8  1  0  0  0  0
  7 14  1  0  0  0  0
  8  9  2  0  0  0  0
  9 10  1  0  0  0  0
  9 11  1  0  0  0  0
 11 12  2  0  0  0  0
 12 13  1  0  0  0  0
 12 14  1  0  0  0  0
 14 15  2  0  0  0  0
 16 17  2  0  0  0  0
 16 21  1  0  0  0  0
 17 18  1  0  0  0  0
 18 19  2  0  0  0  0
 19 20  1  0  0  0  0
 19 22  1  0  0  0  0
 20 21  2  0  0  0  0
 22 23  2  0  0  0  0
 22 24  1  0  0  0  0
 25 24  1  1  0  0  0
 25 27  1  0  0  0  0
 25 26  1  0  0  0  0
 27 29  1  0  0  0  0
 26 30  1  0  0  0  0
 27 28  2  0  0  0  0
 30 32  1  0  0  0  0
 32 31  2  0  0  0  0
 32 33  1  0  0  0  0
M  END
> <ID>
CHEBI:44185

> <NAME>
methotrexate

> <STAR>
3

> <SECONDARY_ID>
CHEBI:44183; CHEBI:6837

> <SYNONYM>
N-[4-[[(2,4-diamino-6-pteridinyl)methyl]methylamino]benzoyl]-L-glutamic acid; MTX; METHOTREXATE; Methotrexate; 4-amino-N(10)-methylpteroylglutamic acid; 4-amino-10-methylfolic acid

> <IUPAC_NAME>
N-(4-{[(2,4-diaminopteridin-6-yl)methyl](methyl)amino}benzoyl)-L-glutamic acid

> <INN>
metotrexato; methotrexatum; methotrexate

> <BRAND_NAME>
Trexall; Rheumatrex; Ledertrexate; Emtexate

> <FORMULA>
C20H22N8O5

> <MASS>
454.43960

> <MONOISOTOPIC_MASS>
454.17132

> <CHARGE>
0

> <SMILES>
CN(Cc1cnc2nc(N)nc(N)c2n1)c1ccc(cc1)C(=O)N[C@@H](CCC(O)=O)C(O)=O

> <INCHI>
InChI=1S/C20H22N8O5/c1-28(9-11-8-23-17-15(24-11)16(21)26-20(22)27-17)12-4-2-10(3-5-12)18(31)25-13(19(32)33)6-7-14(29)30/h2-5,8,13H,6-7,9H2,1H3,(H,25,31)(H,29,30)(H,32,33)(H4,21,22,23,26,27)/t13-/m0/s1

> <INCHIKEY>
FBOZXECLQNJBKD-ZDUSSCGKSA-N

> <BEILSTEIN_REGISTRY_NUMBER>
70669

> <CAS_REGISTRY_NUMBER>
59-05-2

> <CHEMIDPLUS>
59-05-2

> <DRUGBANK_ACCESSION>
DB00563

> <KEGG_COMPOUND_ACCESSION>
C01937

> <KEGG_DRUG_ACCESSION>
D00142

> <LINCS_ACCESSION>
LSM-5690

> <NIST_CHEMISTRY_WEBBOOK>
59-05-2

> <PDBECHEM_ACCESSION>
MTX

> <WIKIPEDIA_ACCESSION>
Methotrexate

$$$$

Marvin  02210609352D          

 16 16  0  0  1  0            999 V2000
    2.3151    0.4890    0.0000 C   0  0  0  0  0  0  0  0  0  0  0  0
    2.3151    1.3140    0.0000 O   0  0  0  0  0  0  0  0  0  0  0  0
    1.6006    0.0765    0.0000 C   0  0  2  0  0  0  0  0  0  0  0  0
    0.8862    0.4890    0.0000 C   0  0  0  0  0  0  0  0  0  0  0  0
    1.6006   -0.7485    0.0000 N   0  0  0  0  0  0  0  0  0  0  0  0
    0.1717    0.0765    0.0000 C   0  0  0  0  0  0  0  0  0  0  0  0
    0.1717   -0.7485    0.0000 C   0  0  0  0  0  0  0  0  0  0  0  0
   -0.5428    0.4890    0.0000 C   0  0  0  0  0  0  0  0  0  0  0  0
   -1.2572    0.0765    0.0000 C   0  0  0  0  0  0  0  0  0  0  0  0
   -1.2572   -0.7485    0.0000 C   0  0  0  0  0  0  0  0  0  0  0  0
   -0.5428   -1.1610    0.0000 C   0  0  0  0  0  0  0  0  0  0  0  0
   -1.9717   -1.1610    0.0000 O   0  0  0  0  0  0  0  0  0  0  0  0
    3.0296    0.0765    0.0000 O   0  0  0  0  0  0  0  0  0  0  0  0
   -2.6862    0.0765    0.0000 O   0  5  0  0  0  0  0  0  0  0  0  0
   -1.9717    1.3140    0.0000 O   0  0  0  0  0  0  0  0  0  0  0  0
   -1.9717    0.4890    0.0000 N   0  3  0  0  0  0  0  0  0  0  0  0
  1  2  2  0  0  0  0
  1  3  1  0  0  0  0
  3  4  1  0  0  0  0
  3  5  1  1  0  0  0
  4  6  1  0  0  0  0
  6  7  1  0  0  0  0
  6  8  2  0  0  0  0
  7 11  2  0  0  0  0
  8  9  1  0  0  0  0
  9 10  2  0  0  0  0
 10 11  1  0  0  0  0
 10 12  1  0  0  0  0
 13  1  1  0  0  0  0
  9 16  1  0  0  0  0
 14 16  1  0  0  0  0
 16 15  2  0  0  0  0
M  CHG  2  14  -1  16   1
M  END
> <ID>
CHEBI:44454

> <NAME>
3-nitro-L-tyrosine

> <DEFINITION>
A  3-nitrotyrosine comprising L-tyrosine having a nitro group at the 3-position on the phenyl ring.

> <STAR>
3

> <SECONDARY_ID>
CHEBI:35130; CHEBI:44450

> <SYNONYM>
META-NITRO-TYROSINE; L-3-nitrotyrosine; 3-nitrotyrosine; (2S)-2-amino-3-(4-hydroxy-3-nitrophenyl)propanoic acid

> <IUPAC_NAME>
3-nitro-L-tyrosine

> <FORMULA>
C9H10N2O5

> <MASS>
226.18618

> <MONOISOTOPIC_MASS>
226.05897

> <CHARGE>
0

> <SMILES>
N[C@@H](Cc1ccc(O)c(c1)[N+]([O-])=O)C(O)=O

> <INCHI>
InChI=1S/C9H10N2O5/c10-6(9(13)14)3-5-1-2-8(12)7(4-5)11(15)16/h1-2,4,6,12H,3,10H2,(H,13,14)/t6-/m0/s1

> <INCHIKEY>
FBTSQILOGYXGMD-LURJTMIESA-N

> <BEILSTEIN_REGISTRY_NUMBER>
2813157

> <CAS_REGISTRY_NUMBER>
621-44-3

> <REAXYS_REGISTRY_NUMBER>
2813157

> <CHEMIDPLUS>
621-44-3

> <DRUGBANK_ACCESSION>
DB03867

> <HMDB_ACCESSION>
HMDB0001904

> <PDBECHEM_ACCESSION>
NIY

> <PUBMED_CITATION>
10942159; 15585307; 20081197; 29228007; 8960880

$$$$

Marvin  06151015012D          

 20 20  0  0  0  0            999 V2000
   10.4524  -28.0249    0.0000 O   0  0  0  0  0  0  0  0  0  0  0  0
    9.7378  -27.6123    0.0000 C   0  0  0  0  0  0  0  0  0  0  0  0
    9.7378  -26.7871    0.0000 O   0  0  0  0  0  0  0  0  0  0  0  0
    9.0233  -28.0247    0.0000 C   0  0  0  0  0  0  0  0  0  0  0  0
    8.3089  -27.6120    0.0000 C   0  0  0  0  0  0  0  0  0  0  0  0
    7.5944  -28.0244    0.0000 C   0  0  0  0  0  0  0  0  0  0  0  0
    6.8803  -27.6124    0.0000 C   0  0  0  0  0  0  0  0  0  0  0  0
    6.1659  -28.0248    0.0000 P   0  0  0  0  0  0  0  0  0  0  0  0
    6.5783  -28.7393    0.0000 O   0  5  0  0  0  0  0  0  0  0  0  0
    5.7534  -27.3103    0.0000 O   0  0  0  0  0  0  0  0  0  0  0  0
    5.4514  -28.4372    0.0000 O   0  0  0  0  0  0  0  0  0  0  0  0
    4.7369  -28.0246    0.0000 C   0  0  0  0  0  0  0  0  0  0  0  0
    4.7369  -27.1995    0.0000 C   0  0  0  0  0  0  0  0  0  0  0  0
    4.0224  -26.7869    0.0000 C   0  0  0  0  0  0  0  0  0  0  0  0
    3.3080  -27.1993    0.0000 C   0  0  0  0  0  0  0  0  0  0  0  0
    3.3080  -28.0243    0.0000 C   0  0  0  0  0  0  0  0  0  0  0  0
    4.0225  -28.4370    0.0000 C   0  0  0  0  0  0  0  0  0  0  0  0
    2.5935  -26.7867    0.0000 N   0  3  0  0  0  0  0  0  0  0  0  0
    2.5939  -25.9622    0.0000 O   0  5  0  0  0  0  0  0  0  0  0  0
    1.8790  -27.1991    0.0000 O   0  0  0  0  0  0  0  0  0  0  0  0
  1  2  1  0  0  0  0
  2  3  2  0  0  0  0
  2  4  1  0  0  0  0
  4  5  1  0  0  0  0
  5  6  1  0  0  0  0
  6  7  1  0  0  0  0
  7  8  1  0  0  0  0
  8  9  1  0  0  0  0
  8 10  2  0  0  0  0
  8 11  1  0  0  0  0
 11 12  1  0  0  0  0
 12 13  1  0  0  0  0
 12 17  2  0  0  0  0
 13 14  2  0  0  0  0
 14 15  1  0  0  0  0
 15 16  2  0  0  0  0
 15 18  1  0  0  0  0
 16 17  1  0  0  0  0
 18 19  1  0  0  0  0
 18 20  2  0  0  0  0
M  CHG  3   9  -1  18   1  19  -1
M  END
> <ID>
CHEBI:44480

> <NAME>
4-nitrophenyl (4-carboxybutyl)phosphonate

> <DEFINITION>
An organophosphonate oxoanion that is a nitrophenyl phosphonate hapten and transition-state analogue derived from pentanoic acid, with affinity for the germline precursor to catalytic antibody 48G7.

> <STAR>
3

> <SYNONYM>
5-(PARA-NITROPHENYL PHOSPHONATE)-PENTANOIC ACID; 5-(p-nitrophenylphosphonate)pentanoic acid; (5-hydroxy-5-oxo-pentyl)-(4-nitrophenoxy)phosphinate

> <IUPAC_NAME>
4-nitrophenyl (4-carboxybutyl)phosphonate

> <FORMULA>
C11H13NO7P

> <MASS>
302.19720

> <MONOISOTOPIC_MASS>
302.04351

> <CHARGE>
-1

> <SMILES>
OC(=O)CCCCP([O-])(=O)Oc1ccc(cc1)[N+]([O-])=O

> <INCHI>
InChI=1S/C11H14NO7P/c13-11(14)3-1-2-8-20(17,18)19-10-6-4-9(5-7-10)12(15)16/h4-7H,1-3,8H2,(H,13,14)(H,17,18)/p-1

> <INCHIKEY>
XVVZSEXTAACTPS-UHFFFAOYSA-M

> <REAXYS_REGISTRY_NUMBER>
6000961

> <DRUGBANK_ACCESSION>
DB08296

> <PDB_ACCESSION>
1GAF

> <PDBECHEM_ACCESSION>
NPE

> <PUBMED_CITATION>
8599084; 9180069

$$$$

Marvin  01271218172D          

 22 25  0  0  1  0            999 V2000
   13.7339  -49.7751    0.0000 C   0  0  0  0  0  0  0  0  0  0  0  0
   13.7339  -50.6002    0.0000 C   0  0  0  0  0  0  0  0  0  0  0  0
   13.0193  -49.3626    0.0000 C   0  0  1  0  0  0  0  0  0  0  0  0
   13.0193  -51.0127    0.0000 C   0  0  2  0  0  0  0  0  0  0  0  0
   12.3049  -49.7751    0.0000 C   0  0  0  0  0  0  0  0  0  0  0  0
   12.3049  -50.6002    0.0000 C   0  0  0  0  0  0  0  0  0  0  0  0
   14.4484  -49.3627    0.0000 C   0  0  0  0  0  0  0  0  0  0  0  0
   15.1628  -49.7752    0.0000 C   0  0  0  0  0  0  0  0  0  0  0  0
   14.4483  -51.0127    0.0000 C   0  0  0  0  0  0  0  0  0  0  0  0
   15.1628  -50.6002    0.0000 C   0  0  0  0  0  0  0  0  0  0  0  0
   11.5904  -49.3627    0.0000 C   0  0  0  0  0  0  0  0  0  0  0  0
   10.8759  -49.7752    0.0000 C   0  0  0  0  0  0  0  0  0  0  0  0
   11.5904  -51.0127    0.0000 C   0  0  0  0  0  0  0  0  0  0  0  0
   10.8759  -50.6002    0.0000 C   0  0  0  0  0  0  0  0  0  0  0  0
   13.3275  -49.8994    0.0000 O   0  0  0  0  0  0  0  0  0  0  0  0
   13.3275  -50.4262    0.0000 O   0  0  0  0  0  0  0  0  0  0  0  0
   13.0193  -51.8377    0.0000 C   0  0  0  0  0  0  0  0  0  0  0  0
   12.3048  -52.2502    0.0000 C   0  0  0  0  0  0  0  0  0  0  0  0
   12.3048  -53.0752    0.0000 C   0  0  0  0  0  0  0  0  0  0  0  0
   11.5902  -53.4878    0.0000 O   0  0  0  0  0  0  0  0  0  0  0  0
   13.0193  -48.5376    0.0000 C   0  0  0  0  0  0  0  0  0  0  0  0
   13.0193  -53.4878    0.0000 O   0  0  0  0  0  0  0  0  0  0  0  0
  3  1  1  0  0  0  0
  4  2  1  0  0  0  0
  5  3  1  0  0  0  0
  6  4  1  0  0  0  0
  7  1  1  0  0  0  0
  2  1  2  0  0  0  0
  8  7  2  0  0  0  0
  9  2  1  0  0  0  0
 10  8  1  0  0  0  0
 10  9  2  0  0  0  0
 11  5  1  0  0  0  0
  6  5  2  0  0  0  0
 12 11  2  0  0  0  0
 13  6  1  0  0  0  0
 14 12  1  0  0  0  0
 14 13  2  0  0  0  0
  3 15  1  1  0  0  0
  4 16  1  1  0  0  0
 15 16  1  0  0  0  0
  4 17  1  0  0  0  0
 17 18  1  0  0  0  0
 18 19  1  0  0  0  0
 19 20  1  0  0  0  0
  3 21  1  0  0  0  0
 19 22  2  0  0  0  0
M  END
> <ID>
CHEBI:44592

> <NAME>
9-(2-carboxyethyl)-10-methylanthracene endoperoxide

> <DEFINITION>
A peroxide-bridged anthracene substituted at the bridgeheads with methyl and carboxyethyl groups.

> <STAR>
3

> <SYNONYM>
[2'-CARBOXYLETHYL]-10-METHYL-ANTHRACENE ENDOPEROXIDE

> <IUPAC_NAME>
3-(10-methyl-9,10-epidioxyanthracen-9(10H)-yl)propanoic acid

> <FORMULA>
C18H16O4

> <MASS>
296.31720

> <MONOISOTOPIC_MASS>
296.10486

> <CHARGE>
0

> <SMILES>
C[C@@]12OO[C@@](CCC(O)=O)(c3ccccc13)c1ccccc21

> <INCHI>
InChI=1S/C18H16O4/c1-17-12-6-2-4-8-14(12)18(22-21-17,11-10-16(19)20)15-9-5-3-7-13(15)17/h2-9H,10-11H2,1H3,(H,19,20)/t17-,18+

> <INCHIKEY>
IOWYALZFEJOVHO-HDICACEKSA-N

> <PDB_ACCESSION>
1LO2

> <PDBECHEM_ACCESSION>
OX1

> <PUBMED_CITATION>
12093912

$$$$

Marvin  06071016072D          

 24 25  0  0  0  0            999 V2000
   16.8215  -24.8359    0.0000 N   0  3  0  0  0  0  0  0  0  0  0  0
   17.5360  -25.2484    0.0000 C   0  0  0  0  0  0  0  0  0  0  0  0
   18.2505  -24.8359    0.0000 C   0  0  0  0  0  0  0  0  0  0  0  0
   18.9643  -25.2484    0.0000 C   0  0  0  0  0  0  0  0  0  0  0  0
   18.9643  -26.0733    0.0000 C   0  0  0  0  0  0  0  0  0  0  0  0
   19.6788  -26.4857    0.0000 C   0  0  0  0  0  0  0  0  0  0  0  0
   20.3934  -26.0733    0.0000 C   0  0  0  0  0  0  0  0  0  0  0  0
   21.1078  -26.4857    0.0000 N   0  0  0  0  0  0  0  0  0  0  0  0
   21.8221  -26.0732    0.0000 C   0  0  0  0  0  0  0  0  0  0  0  0
   21.8220  -25.2482    0.0000 O   0  0  0  0  0  0  0  0  0  0  0  0
   22.5366  -26.4856    0.0000 C   0  0  0  0  0  0  0  0  0  0  0  0
   23.2509  -26.0731    0.0000 C   0  0  0  0  0  0  0  0  0  0  0  0
   23.9655  -26.4857    0.0000 C   0  0  0  0  0  0  0  0  0  0  0  0
   24.7024  -26.0505    0.0000 C   0  0  0  0  0  0  0  0  0  0  0  0
   24.7022  -25.2254    0.0000 O   0  0  0  0  0  0  0  0  0  0  0  0
   25.3939  -26.4849    0.0000 O   0  0  0  0  0  0  0  0  0  0  0  0
   20.3934  -25.2484    0.0000 C   0  0  0  0  0  0  0  0  0  0  0  0
   19.6788  -24.8359    0.0000 C   0  0  0  0  0  0  0  0  0  0  0  0
   16.1070  -23.5984    0.0000 C   0  0  0  0  0  0  0  0  0  0  0  0
   15.3925  -24.0109    0.0000 C   0  0  0  0  0  0  0  0  0  0  0  0
   15.3925  -24.8359    0.0000 C   0  0  0  0  0  0  0  0  0  0  0  0
   16.1070  -25.2484    0.0000 C   0  0  0  0  0  0  0  0  0  0  0  0
   16.8215  -24.0109    0.0000 C   0  0  0  0  0  0  0  0  0  0  0  0
   16.8215  -25.6609    0.0000 O   0  5  0  0  0  0  0  0  0  0  0  0
  1  2  1  0  0  0  0
  2  3  1  0  0  0  0
  3  4  1  0  0  0  0
  4  5  1  0  0  0  0
  4 18  2  0  0  0  0
  5  6  2  0  0  0  0
  6  7  1  0  0  0  0
  7  8  1  0  0  0  0
  7 17  2  0  0  0  0
  8  9  1  0  0  0  0
  9 10  2  0  0  0  0
  9 11  1  0  0  0  0
 11 12  1  0  0  0  0
 12 13  1  0  0  0  0
 13 14  1  0  0  0  0
 14 15  2  0  0  0  0
 14 16  1  0  0  0  0
 17 18  1  0  0  0  0
 22  1  1  0  0  0  0
  1 23  1  0  0  0  0
 19 20  1  0  0  0  0
 20 21  1  0  0  0  0
 21 22  1  0  0  0  0
 19 23  1  0  0  0  0
  1 24  1  0  0  0  0
M  CHG  2   1   1  24  -1
M  END
> <ID>
CHEBI:44598

> <NAME>
5-({4-[2-(1-oxidopiperidin-1-yl)ethyl]phenyl}amino)-5-oxopentanoic acid

> <DEFINITION>
A dicarboxylic acid monoamide of glutaric acid containing benzene and oxidopiperidine moieties; a transition state analogue hapten used to elicit catalytic antibodies 5C8 and 14B9.

> <STAR>
3

> <IUPAC_NAME>
5-({4-[2-(1-oxidopiperidin-1-yl)ethyl]phenyl}amino)-5-oxopentanoic acid

> <FORMULA>
C18H26N2O4

> <MASS>
334.41000

> <MONOISOTOPIC_MASS>
334.18926

> <CHARGE>
0

> <SMILES>
OC(=O)CCCC(=O)Nc1ccc(CC[N+]2([O-])CCCCC2)cc1

> <INCHI>
InChI=1S/C18H26N2O4/c21-17(5-4-6-18(22)23)19-16-9-7-15(8-10-16)11-14-20(24)12-2-1-3-13-20/h7-10H,1-6,11-14H2,(H,19,21)(H,22,23)

> <INCHIKEY>
RKJXWOJUCCBWSC-UHFFFAOYSA-N

> <DRUGBANK_ACCESSION>
DB08289

> <PDB_ACCESSION>
35C8

> <PDBECHEM_ACCESSION>
NOX

> <PUBMED_CITATION>
10353817

$$$$

Marvin  02261014302D          

 22 22  0  0  0  0            999 V2000
   10.8728   -5.8605    0.0000 C   0  0  0  0  0  0  0  0  0  0  0  0
   10.8728   -6.6814    0.0000 O   0  0  0  0  0  0  0  0  0  0  0  0
   11.6089   -5.3978    0.0000 N   0  0  0  0  0  0  0  0  0  0  0  0
   10.1430   -5.4273    0.0000 C   0  0  0  0  0  0  0  0  0  0  0  0
    8.7077   -7.0581    0.0000 C   0  0  0  0  0  0  0  0  0  0  0  0
    8.7077   -7.8577    0.0000 N   0  3  0  0  0  0  0  0  0  0  0  0
    8.0078   -8.3162    0.0000 O   0  5  0  0  0  0  0  0  0  0  0  0
    9.4585   -8.2829    0.0000 O   0  0  0  0  0  0  0  0  0  0  0  0
   12.2941   -5.8397    0.0000 C   0  0  0  0  0  0  0  0  0  0  0  0
   13.0085   -5.4273    0.0000 C   0  0  0  0  0  0  0  0  0  0  0  0
   13.7230   -5.8397    0.0000 C   0  0  0  0  0  0  0  0  0  0  0  0
   14.4374   -5.4273    0.0000 C   0  0  0  0  0  0  0  0  0  0  0  0
   15.1520   -5.8397    0.0000 C   0  0  0  0  0  0  0  0  0  0  0  0
   15.8664   -5.4272    0.0000 C   0  0  0  0  0  0  0  0  0  0  0  0
   16.5809   -5.8397    0.0000 O   0  0  0  0  0  0  0  0  0  0  0  0
   15.8664   -4.6022    0.0000 O   0  0  0  0  0  0  0  0  0  0  0  0
    8.7077   -5.4080    0.0000 C   0  0  0  0  0  0  0  0  0  0  0  0
    7.9933   -5.8206    0.0000 C   0  0  0  0  0  0  0  0  0  0  0  0
    7.9933   -6.6456    0.0000 C   0  0  0  0  0  0  0  0  0  0  0  0
    9.4221   -6.6456    0.0000 C   0  0  0  0  0  0  0  0  0  0  0  0
    9.4221   -5.8206    0.0000 C   0  0  0  0  0  0  0  0  0  0  0  0
    7.2787   -7.0581    0.0000 O   0  0  0  0  0  0  0  0  0  0  0  0
  2  1  2  0  0  0  0
  3  1  1  0  0  0  0
  4  1  1  0  0  0  0
  3  9  1  0  0  0  0
 21  4  1  0  0  0  0
  6  5  1  0  0  0  0
  7  6  1  0  0  0  0
  8  6  2  0  0  0  0
  9 10  1  0  0  0  0
 10 11  1  0  0  0  0
 11 12  1  0  0  0  0
 12 13  1  0  0  0  0
 13 14  1  0  0  0  0
 14 15  1  0  0  0  0
 14 16  2  0  0  0  0
 17 18  2  0  0  0  0
 17 21  1  0  0  0  0
 18 19  1  0  0  0  0
 19  5  2  0  0  0  0
  5 20  1  0  0  0  0
 20 21  2  0  0  0  0
 19 22  1  0  0  0  0
M  CHG  2   6   1   7  -1
M  END
> <ID>
CHEBI:44604

> <NAME>
6-[(4-hydroxy-3-nitrophenyl)acetamido]caproic acid

> <DEFINITION>
An N-acylamino acid consisting of 6-aminohexanoic acid bearing an N-(4-hydroxy-3-nitrophenyl)acetyl substituent.

> <STAR>
3

> <SYNONYM>
6-{[(4-hydroxy-3-nitrophenyl)acetyl]amino}hexanoic acid; 4-HYDROXY-3-NITROPHENYLACETYL-EPSILON-AMINOCAPROIC ACID

> <IUPAC_NAME>
6-[2-(4-hydroxy-3-nitrophenyl)acetamido]hexanoic acid

> <FORMULA>
C14H18N2O6

> <MASS>
310.30250

> <MONOISOTOPIC_MASS>
310.11649

> <CHARGE>
0

> <SMILES>
OC(=O)CCCCCNC(=O)Cc1ccc(O)c(c1)[N+]([O-])=O

> <INCHI>
InChI=1S/C14H18N2O6/c17-12-6-5-10(8-11(12)16(21)22)9-13(18)15-7-3-1-2-4-14(19)20/h5-6,8,17H,1-4,7,9H2,(H,15,18)(H,19,20)

> <INCHIKEY>
XAYGJFACOIKJCT-UHFFFAOYSA-N

> <PDBECHEM_ACCESSION>
NP

$$$$

Marvin  06201312302D          

 22 22  0  0  1  0            999 V2000
   22.7395  -16.5359    0.0000 N   0  0  0  0  0  0  0  0  0  0  0  0
   23.8320  -15.7761    0.0000 C   0  0  0  0  0  0  0  0  0  0  0  0
   23.4470  -14.5030    0.0000 C   0  0  0  0  0  0  0  0  0  0  0  0
   21.6798  -15.7316    0.0000 C   0  0  0  0  0  0  0  0  0  0  0  0
   22.1172  -14.4754    0.0000 C   0  0  0  0  0  0  0  0  0  0  0  0
   25.0880  -16.2134    0.0000 O   0  0  0  0  0  0  0  0  0  0  0  0
   23.4459  -13.1700    0.0000 N   0  0  0  0  0  0  0  0  0  0  0  0
   24.5975  -12.5047    0.0000 C   0  0  0  0  0  0  0  0  0  0  0  0
   24.5975  -11.1744    0.0000 O   0  0  0  0  0  0  0  0  0  0  0  0
   25.7495  -13.1697    0.0000 C   0  0  0  0  0  0  0  0  0  0  0  0
   26.9016  -12.5047    0.0000 C   0  0  0  0  0  0  0  0  0  0  0  0
   28.0534  -13.1697    0.0000 C   0  0  0  0  0  0  0  0  0  0  0  0
   29.2055  -12.5047    0.0000 C   0  0  0  0  0  0  0  0  0  0  0  0
   30.3573  -13.1697    0.0000 C   0  0  0  0  0  0  0  0  0  0  0  0
   30.3573  -14.4998    0.0000 C   0  0  0  0  0  0  0  0  0  0  0  0
   29.2055  -15.1647    0.0000 C   0  0  0  0  0  0  0  0  0  0  0  0
   26.9016  -11.1744    0.0000 O   0  0  0  0  0  0  0  0  0  0  0  0
   31.5091  -15.1648    0.0000 C   0  0  0  0  0  0  0  0  0  0  0  0
   32.6610  -14.4997    0.0000 C   0  0  0  0  0  0  0  0  0  0  0  0
   31.5091  -12.5047    0.0000 C   0  0  0  0  0  0  0  0  0  0  0  0
   32.6609  -13.1697    0.0000 C   0  0  0  0  0  0  0  0  0  0  0  0
   24.7252  -14.1493    0.0000 H   0  0  0  0  0  0  0  0  0  0  0  0
  2  1  1  0  0  0  0
  4  1  1  0  0  0  0
  3  2  1  0  0  0  0
  5  3  1  0  0  0  0
  5  4  1  0  0  0  0
  6  2  2  0  0  0  0
  3  7  1  0  0  0  0
  9  8  2  0  0  0  0
 10  8  1  0  0  0  0
  7  8  1  0  0  0  0
 10 11  1  0  0  0  0
 11 12  1  0  0  0  0
 12 13  1  0  0  0  0
 13 14  1  0  0  0  0
 15 16  1  0  0  0  0
 11 17  2  0  0  0  0
 18 15  1  0  0  0  0
 19 18  1  0  0  0  0
 20 14  1  0  0  0  0
 21 19  1  0  0  0  0
 21 20  1  0  0  0  0
  3 22  1  1  0  0  0
M  END
> <ID>
CHEBI:44612

> <NAME>
3-oxo-N-[(3S)-2-oxopyrrolidin-3-yl]dodecanamide

> <DEFINITION>
A member of the class of pyrrolidin-2-ones that is pyrrolidin-2-one in which a hydrogen at the 3 pro-S position is replaced by a 3-oxododecanamido group.

> <STAR>
3

> <IUPAC_NAME>
3-oxo-N-[(3S)-2-oxopyrrolidin-3-yl]dodecanamide

> <FORMULA>
C16H28N2O3

> <MASS>
296.40510

> <MONOISOTOPIC_MASS>
296.20999

> <CHARGE>
0

> <SMILES>
[H][C@@]1(CCNC1=O)NC(=O)CC(=O)CCCCCCCCC

> <INCHI>
InChI=1S/C16H28N2O3/c1-2-3-4-5-6-7-8-9-13(19)12-15(20)18-14-10-11-17-16(14)21/h14H,2-12H2,1H3,(H,17,21)(H,18,20)/t14-/m0/s1

> <INCHIKEY>
VEYZCVBECUYIJZ-AWEZNQCLSA-N

> <BEILSTEIN_REGISTRY_NUMBER>
10471648

> <DRUGBANK_ACCESSION>
DB08323

> <PDB_ACCESSION>
2NTF

> <PUBMED_CITATION>
17400249; 24592914

$$$$

Marvin  03100613142D          

 10 10  0  0  0  0            999 V2000
   -0.1480    0.2044    0.0000 C   0  0  0  0  0  0  0  0  0  0  0  0
   -0.1480   -0.6206    0.0000 C   0  0  0  0  0  0  0  0  0  0  0  0
   -0.8625    0.6169    0.0000 C   0  0  0  0  0  0  0  0  0  0  0  0
    0.5665    0.6169    0.0000 C   0  0  0  0  0  0  0  0  0  0  0  0
   -0.8625   -1.0331    0.0000 C   0  0  0  0  0  0  0  0  0  0  0  0
   -1.5770    0.2044    0.0000 C   0  0  0  0  0  0  0  0  0  0  0  0
    1.2809    0.2044    0.0000 C   0  0  2  0  0  0  0  0  0  0  0  0
   -1.5770   -0.6206    0.0000 C   0  0  0  0  0  0  0  0  0  0  0  0
    1.2809   -0.6206    0.0000 C   0  0  0  0  0  0  0  0  0  0  0  0
    1.9954    0.6169    0.0000 N   0  0  0  0  0  0  0  0  0  0  0  0
  1  2  1  0  0  0  0
  1  3  2  0  0  0  0
  1  4  1  0  0  0  0
  2  5  2  0  0  0  0
  3  6  1  0  0  0  0
  4  7  1  0  0  0  0
  5  8  1  0  0  0  0
  7  9  1  1  0  0  0
  7 10  1  0  0  0  0
  6  8  2  0  0  0  0
M  END
> <ID>
CHEBI:4469

> <NAME>
(S)-amphetamine

> <DEFINITION>
A 1-phenylpropan-2-amine that has S configuration.

> <STAR>
3

> <SYNONYM>
Dextroamphetamine; dexamphetamine; d-amphetamine; (S)-amphetamine; (S)-alpha-methylbenzeneethanamine; (S)-1-phenyl-2-propylamine; (S)-1-phenyl-2-aminopropane; (S)-(+)-beta-phenylisopropylamine; (S)-(+)-amphetamine; (alphaS)-alpha-methylbenzeneethanamine; (+)-amphetamine; (+)-alpha-methylphenylethylamine; (+)-alpha-methylphenethylamine; (+)-(S)-amphetamine

> <IUPAC_NAME>
(2S)-1-phenylpropan-2-amine

> <FORMULA>
C9H13N

> <MASS>
135.20626

> <MONOISOTOPIC_MASS>
135.10480

> <CHARGE>
0

> <SMILES>
C[C@H](N)Cc1ccccc1

> <INCHI>
InChI=1S/C9H13N/c1-8(10)7-9-5-3-2-4-6-9/h2-6,8H,7,10H2,1H3/t8-/m0/s1

> <INCHIKEY>
KWTSXDURSIMDCE-QMMMGPOBSA-N

> <BEILSTEIN_REGISTRY_NUMBER>
2205872

> <CAS_REGISTRY_NUMBER>
51-64-9

> <GMELIN_REGISTRY_NUMBER>
1125854

> <CHEMIDPLUS>
51-64-9

> <DRUGBANK_ACCESSION>
DB01576

> <KEGG_COMPOUND_ACCESSION>
C07884

> <KEGG_DRUG_ACCESSION>
D03740

> <NIST_CHEMISTRY_WEBBOOK>
51-64-9

> <WIKIPEDIA_ACCESSION>
Dextroamphetamine

> <PUBMED_CITATION>
22129527; 22894820; 23360956; 23851485; 23881044; 23907377; 24349338

$$$$

Ketcher 02142011152D 1   1.00000     0.00000     0

 21 24  0     1  0            999 V2000
   10.4332   -5.3411    0.0000 C   0  0  0  0  0  0  0  0  0  0  0  0
    9.5946   -4.8619    0.0000 C   0  0  0  0  0  0  0  0  0  0  0  0
    8.7560   -5.3411    0.0000 C   0  0  0  0  0  0  0  0  0  0  0  0
    8.7560   -6.3103    0.0000 C   0  0  0  0  0  0  0  0  0  0  0  0
    8.7560   -8.2489    0.0000 C   0  0  0  0  0  0  0  0  0  0  0  0
    8.7560   -9.2072    0.0000 C   0  0  0  0  0  0  0  0  0  0  0  0
    9.5946   -9.6973    0.0000 C   0  0  0  0  0  0  0  0  0  0  0  0
   10.4332   -9.2073    0.0000 C   0  0  0  0  0  0  0  0  0  0  0  0
   11.2718   -7.7587    0.0000 C   0  0  0  0  0  0  0  0  0  0  0  0
   11.2718   -6.8005    0.0000 C   0  0  0  0  0  0  0  0  0  0  0  0
   10.4332   -6.3103    0.0000 C   0  0  0  0  0  0  0  0  0  0  0  0
    9.5946   -6.8005    0.0000 C   0  0  0  0  0  0  0  0  0  0  0  0
    9.5946   -7.7587    0.0000 C   0  0  0  0  0  0  0  0  0  0  0  0
   10.4332   -8.2489    0.0000 C   0  0  0  0  0  0  0  0  0  0  0  0
   10.3025   -7.2687    0.0000 C   0  0  0  0  0  0  0  0  0  0  0  0
   12.0995   -7.2687    0.0000 C   0  0  0  0  0  0  0  0  0  0  0  0
   12.1104   -8.2489    0.0000 N   0  0  0  0  0  0  0  0  0  0  0  0
   11.2827   -8.7717    0.0000 H   0  0  0  0  0  0  0  0  0  0  0  0
    7.9083   -4.8490    0.0000 O   0  0  0  0  0  0  0  0  0  0  0  0
    7.0583   -5.3372    0.0000 C   0  0  0  0  0  0  0  0  0  0  0  0
   12.6457   -9.0441    0.0000 C   0  0  0  0  0  0  0  0  0  0  0  0
 11  1  1  0     0  0
  2  1  2  0     0  0
 10 11  1  0     0  0
 12 11  2  0     0  0
  3  2  1  0     0  0
  4 12  1  0     0  0
 13 12  1  0     0  0
  4  3  2  0     0  0
  9 10  1  0     0  0
 14  9  1  0     0  0
  9 17  1  6     0  0
  5 13  1  0     0  0
 14 13  1  0     0  0
 13 15  1  6     0  0
  8 14  1  0     0  0
 14 18  1  6     0  0
  6  5  1  0     0  0
  7  6  1  0     0  0
  7  8  1  0     0  0
 16 15  1  0     0  0
 17 16  1  0     0  0
 20 19  1  0     0  0
  3 19  1  0     0  0
 21 17  1  0     0  0
M  END
> <ID>
CHEBI:4470

> <NAME>
dextromethorphan

> <DEFINITION>
A 6-methoxy-11-methyl-1,3,4,9,10,10a-hexahydro-2H-10,4a-(epiminoethano)phenanthrene in which the sterocenters at positions 4a, 10 and 10a have S-configuration. It is a prodrug of dextrorphan and used as an antitussive drug for suppressing cough.

> <STAR>
3

> <SECONDARY_ID>
CHEBI:92579

> <SYNONYM>
DXM; dextromethorfan; destrometerfano; D-methorphan; d-Methorphan; BA-2666; BA 2666; 3-methoxy-17-methyl-9alpha,13alpha,14alpha-morphinan; (9alpha,13alpha,14alpha)-3-methoxy-17-methylmorphinan; (+)-dextromethorphan; (+)-3-methoxy-N-methylmorphinan

> <IUPAC_NAME>
3-methoxy-17-methyl-9alpha,13alpha,14alpha-morphinan; (4aS,10S,10aS)-6-methoxy-11-methyl-1,3,4,9,10,10a-hexahydro-2H-10,4a-(epiminoethano)phenanthrene

> <INN>
dextrometorfano; dextromethorphanum; dextromethorphane; dextromethorphan

> <BRAND_NAME>
Tusilan; Romilar; Medicon; Dextromorphan; Delsym; Calmylin; Benylin DM; Balminil DM; Antussan; Albutussin

> <FORMULA>
C18H25NO

> <MASS>
271.404

> <MONOISOTOPIC_MASS>
271.19361

> <CHARGE>
0

> <SMILES>
C=1C=2C[C@H]3[C@@]4([C@](C2C=C(C1)OC)(CCCC4)CCN3C)[H]

> <INCHI>
InChI=1S/C18H25NO/c1-19-10-9-18-8-4-3-5-15(18)17(19)11-13-6-7-14(20-2)12-16(13)18/h6-7,12,15,17H,3-5,8-11H2,1-2H3/t15-,17+,18+/m1/s1

> <INCHIKEY>
MKXZASYAUGDDCJ-NJAFHUGGSA-N

> <CAS_REGISTRY_NUMBER>
125-71-3

> <REAXYS_REGISTRY_NUMBER>
88549

> <CHEMIDPLUS>
125-71-3

> <DRUGBANK_ACCESSION>
DB00514

> <HMDB_ACCESSION>
HMDB0001920

> <KEGG_COMPOUND_ACCESSION>
C06947

> <KEGG_DRUG_ACCESSION>
D03742

> <LINCS_ACCESSION>
LSM-2726

> <NIST_CHEMISTRY_WEBBOOK>
125-71-3

> <WIKIPEDIA_ACCESSION>
Dextromethorphan

> <PUBMED_CITATION>
10869398; 12711372; 15505150; 17157116; 17461892; 17573115; 18160193; 18198471; 24269965; 2660263; 31094746; 7976530; 8158182; 9705419

$$$$

Marvin  05211013392D          

 21 21  0  0  1  0            999 V2000
   12.0810   -5.2108    0.0000 C   0  0  0  0  0  0  0  0  0  0  0  0
   11.3665   -5.6233    0.0000 C   0  0  2  0  0  0  0  0  0  0  0  0
   12.7954   -5.6233    0.0000 O   0  0  0  0  0  0  0  0  0  0  0  0
   12.0810   -4.3858    0.0000 O   0  0  0  0  0  0  0  0  0  0  0  0
   11.3665   -6.4483    0.0000 N   0  0  0  0  0  0  0  0  0  0  0  0
   10.6520   -5.2108    0.0000 C   0  0  0  0  0  0  0  0  0  0  0  0
    9.9375   -8.0982    0.0000 C   0  0  0  0  0  0  0  0  0  0  0  0
    9.9375   -8.9232    0.0000 C   0  0  0  0  0  0  0  0  0  0  0  0
   11.3665   -8.0982    0.0000 C   0  0  0  0  0  0  0  0  0  0  0  0
   10.6520   -9.3357    0.0000 N   0  0  0  0  0  0  0  0  0  0  0  0
   11.3665   -8.9232    0.0000 C   0  0  0  0  0  0  0  0  0  0  0  0
   10.6520   -7.6857    0.0000 C   0  0  0  0  0  0  0  0  0  0  0  0
   12.0808   -7.6857    0.0000 C   0  0  0  0  0  0  0  0  0  0  0  0
   12.7954   -8.0982    0.0000 O   0  0  0  0  0  0  0  0  0  0  0  0
    9.2231   -9.3357    0.0000 C   0  0  0  0  0  0  0  0  0  0  0  0
    9.2231   -7.6857    0.0000 O   0  0  0  0  0  0  0  0  0  0  0  0
   10.6520   -6.8608    0.0000 C   0  0  0  0  0  0  0  0  0  0  0  0
   13.5098   -7.6857    0.0000 P   0  0  0  0  0  0  0  0  0  0  0  0
   14.2243   -8.0982    0.0000 O   0  0  0  0  0  0  0  0  0  0  0  0
   13.5098   -6.8607    0.0000 O   0  0  0  0  0  0  0  0  0  0  0  0
   13.7234   -8.4826    0.0000 O   0  0  0  0  0  0  0  0  0  0  0  0
  2  1  1  0  0  0  0
  4  1  2  0  0  0  0
  3  1  1  0  0  0  0
  2  6  1  0  0  0  0
  2  5  1  6  0  0  0
 16  7  1  0  0  0  0
  8  7  2  0  0  0  0
 15  8  1  0  0  0  0
 13  9  1  0  0  0  0
  8 10  1  0  0  0  0
  9 11  1  0  0  0  0
 11 10  2  0  0  0  0
  7 12  1  0  0  0  0
 12  9  2  0  0  0  0
 17 12  1  0  0  0  0
 14 13  1  0  0  0  0
  5 17  1  0  0  0  0
 14 18  1  0  0  0  0
 18 19  1  0  0  0  0
 18 20  2  0  0  0  0
 18 21  1  0  0  0  0
M  END
> <ID>
CHEBI:44743

> <NAME>
N-(5'-phosphopyridoxyl)-D-alanine

> <DEFINITION>
A D-alanine derivative arising from reductive N-alkylation of D-alanine by pyridoxal-5-phosphate.

> <STAR>
3

> <IUPAC_NAME>
N-({3-hydroxy-2-methyl-5-[(phosphonooxy)methyl]pyridin-4-yl}methyl)-D-alanine

> <FORMULA>
C11H17N2O7P

> <MASS>
320.23560

> <MONOISOTOPIC_MASS>
320.07734

> <CHARGE>
0

> <SMILES>
C[C@@H](NCc1c(COP(O)(O)=O)cnc(C)c1O)C(O)=O

> <INCHI>
InChI=1S/C11H17N2O7P/c1-6-10(14)9(4-13-7(2)11(15)16)8(3-12-6)5-20-21(17,18)19/h3,7,13-14H,4-5H2,1-2H3,(H,15,16)(H2,17,18,19)/t7-/m1/s1

> <INCHIKEY>
WACJCHFWJNNBPR-SSDOTTSWSA-N

> <BEILSTEIN_REGISTRY_NUMBER>
6072352

> <REAXYS_REGISTRY_NUMBER>
6072352

> <DRUGBANK_ACCESSION>
DB01993

> <PDB_ACCESSION>
2BMK

> <PDBECHEM_ACCESSION>
PDD

> <PUBMED_CITATION>
16790434

$$$$

Marvin  10291210392D          

 25 25  0  0  1  0            999 V2000
   10.9219   -3.1008    0.0000 C   0  0  0  0  0  0  0  0  0  0  0  0
   10.2073   -3.5135    0.0000 C   0  0  1  0  0  0  0  0  0  0  0  0
   11.6363   -3.5135    0.0000 O   0  0  0  0  0  0  0  0  0  0  0  0
   10.9219   -2.2759    0.0000 O   0  0  0  0  0  0  0  0  0  0  0  0
   10.2073   -4.3385    0.0000 N   0  0  0  0  0  0  0  0  0  0  0  0
    9.4929   -3.1008    0.0000 C   0  0  0  0  0  0  0  0  0  0  0  0
    8.7784   -5.9886    0.0000 C   0  0  0  0  0  0  0  0  0  0  0  0
    8.7784   -6.8136    0.0000 C   0  0  0  0  0  0  0  0  0  0  0  0
   10.2073   -5.9886    0.0000 C   0  0  0  0  0  0  0  0  0  0  0  0
    9.4929   -7.2261    0.0000 N   0  0  0  0  0  0  0  0  0  0  0  0
   10.2073   -6.8136    0.0000 C   0  0  0  0  0  0  0  0  0  0  0  0
    9.4929   -5.5761    0.0000 C   0  0  0  0  0  0  0  0  0  0  0  0
   10.9217   -5.5761    0.0000 C   0  0  0  0  0  0  0  0  0  0  0  0
   11.6363   -5.9886    0.0000 O   0  0  0  0  0  0  0  0  0  0  0  0
    8.0640   -7.2261    0.0000 C   0  0  0  0  0  0  0  0  0  0  0  0
    8.0640   -5.5761    0.0000 O   0  0  0  0  0  0  0  0  0  0  0  0
    9.4929   -4.7511    0.0000 C   0  0  0  0  0  0  0  0  0  0  0  0
   12.3507   -5.5761    0.0000 P   0  0  0  0  0  0  0  0  0  0  0  0
   13.0837   -5.9518    0.0000 O   0  0  0  0  0  0  0  0  0  0  0  0
   12.3507   -4.7511    0.0000 O   0  0  0  0  0  0  0  0  0  0  0  0
   12.5644   -6.3545    0.0000 O   0  0  0  0  0  0  0  0  0  0  0  0
    8.7782   -3.5132    0.0000 C   0  0  0  0  0  0  0  0  0  0  0  0
    8.0638   -3.1007    0.0000 C   0  0  0  0  0  0  0  0  0  0  0  0
    7.3494   -3.5129    0.0000 C   0  0  0  0  0  0  0  0  0  0  0  0
    6.6349   -3.1004    0.0000 N   0  0  0  0  0  0  0  0  0  0  0  0
  2  1  1  0  0  0  0
  4  1  2  0  0  0  0
  3  1  1  0  0  0  0
  2  6  1  0  0  0  0
  2  5  1  1  0  0  0
 16  7  1  0  0  0  0
  8  7  2  0  0  0  0
 15  8  1  0  0  0  0
 13  9  1  0  0  0  0
  8 10  1  0  0  0  0
  9 11  1  0  0  0  0
 11 10  2  0  0  0  0
  7 12  1  0  0  0  0
 12  9  2  0  0  0  0
 17 12  1  0  0  0  0
 14 13  1  0  0  0  0
  5 17  1  0  0  0  0
 14 18  1  0  0  0  0
 18 19  1  0  0  0  0
 18 20  2  0  0  0  0
 18 21  1  0  0  0  0
  6 22  1  0  0  0  0
 22 23  1  0  0  0  0
 23 24  1  0  0  0  0
 24 25  1  0  0  0  0
M  END
> <ID>
CHEBI:44759

> <NAME>
N(2)-(5'-phosphopyridoxyl)-L-lysine

> <DEFINITION>
An L-lysine derivative arising from reductive alkylation of the N2-position of L-lysine by pyridoxal-5-phosphate.

> <STAR>
3

> <IUPAC_NAME>
N(2)-({3-hydroxy-2-methyl-5-[(phosphonooxy)methyl]pyridin-4-yl}methyl)-L-lysine

> <FORMULA>
C14H24N3O7P

> <MASS>
377.33000

> <MONOISOTOPIC_MASS>
377.13519

> <CHARGE>
0

> <SMILES>
Cc1ncc(COP(O)(O)=O)c(CN[C@@H](CCCCN)C(O)=O)c1O

> <INCHI>
InChI=1S/C14H24N3O7P/c1-9-13(18)11(10(6-16-9)8-24-25(21,22)23)7-17-12(14(19)20)4-2-3-5-15/h6,12,17-18H,2-5,7-8,15H2,1H3,(H,19,20)(H2,21,22,23)/t12-/m0/s1

> <INCHIKEY>
GQMAOPRRHWJXFB-LBPRGKRZSA-N

> <REAXYS_REGISTRY_NUMBER>
38360

> <PDB_ACCESSION>
1WCB

> <PDBECHEM_ACCESSION>
PE1

> <PUBMED_CITATION>
16790434

$$$$

Marvin  07151014542D          

 21 21  0  0  1  0            999 V2000
   17.6484   -6.1687    0.0000 C   0  0  0  0  0  0  0  0  0  0  0  0
   16.9338   -6.5813    0.0000 C   0  0  1  0  0  0  0  0  0  0  0  0
   18.3628   -6.5813    0.0000 O   0  0  0  0  0  0  0  0  0  0  0  0
   17.6484   -5.3438    0.0000 O   0  0  0  0  0  0  0  0  0  0  0  0
   16.9338   -7.4063    0.0000 N   0  0  0  0  0  0  0  0  0  0  0  0
   16.2194   -6.1687    0.0000 C   0  0  0  0  0  0  0  0  0  0  0  0
   15.5049   -9.0562    0.0000 C   0  0  0  0  0  0  0  0  0  0  0  0
   15.5049   -9.8812    0.0000 C   0  0  0  0  0  0  0  0  0  0  0  0
   16.9338   -9.0562    0.0000 C   0  0  0  0  0  0  0  0  0  0  0  0
   16.2194  -10.2937    0.0000 N   0  0  0  0  0  0  0  0  0  0  0  0
   16.9338   -9.8812    0.0000 C   0  0  0  0  0  0  0  0  0  0  0  0
   16.2194   -8.6437    0.0000 C   0  0  0  0  0  0  0  0  0  0  0  0
   17.6482   -8.6437    0.0000 C   0  0  0  0  0  0  0  0  0  0  0  0
   18.3628   -9.0562    0.0000 O   0  0  0  0  0  0  0  0  0  0  0  0
   14.7905  -10.2937    0.0000 C   0  0  0  0  0  0  0  0  0  0  0  0
   14.7905   -8.6437    0.0000 O   0  0  0  0  0  0  0  0  0  0  0  0
   16.2194   -7.8188    0.0000 C   0  0  0  0  0  0  0  0  0  0  0  0
   19.0772   -8.6437    0.0000 P   0  0  0  0  0  0  0  0  0  0  0  0
   19.8102   -9.0194    0.0000 O   0  0  0  0  0  0  0  0  0  0  0  0
   19.0772   -7.8187    0.0000 O   0  0  0  0  0  0  0  0  0  0  0  0
   19.2909   -9.4222    0.0000 O   0  0  0  0  0  0  0  0  0  0  0  0
  2  1  1  0  0  0  0
  4  1  2  0  0  0  0
  3  1  1  0  0  0  0
  2  6  1  0  0  0  0
  2  5  1  1  0  0  0
 16  7  1  0  0  0  0
  8  7  2  0  0  0  0
 15  8  1  0  0  0  0
 13  9  1  0  0  0  0
  8 10  1  0  0  0  0
  9 11  1  0  0  0  0
 11 10  2  0  0  0  0
  7 12  1  0  0  0  0
 12  9  2  0  0  0  0
 17 12  1  0  0  0  0
 14 13  1  0  0  0  0
  5 17  1  0  0  0  0
 14 18  1  0  0  0  0
 18 19  1  0  0  0  0
 18 20  2  0  0  0  0
 18 21  1  0  0  0  0
M  END
> <ID>
CHEBI:44770

> <NAME>
N-(5'-phosphopyridoxyl)-L-alanine

> <DEFINITION>
An alanine derivative arising from reductive N-alkylation of L-alanine by pyridoxal-5-phosphate.

> <STAR>
3

> <SECONDARY_ID>
CHEBI:44971; CHEBI:44749; CHEBI:44767

> <SYNONYM>
PLP-L-Ala

> <IUPAC_NAME>
N-({3-hydroxy-2-methyl-5-[(phosphonooxy)methyl]pyridin-4-yl}methyl)-L-alanine

> <FORMULA>
C11H17N2O7P

> <MASS>
320.23560

> <MONOISOTOPIC_MASS>
320.07734

> <CHARGE>
0

> <SMILES>
C[C@H](NCc1c(COP(O)(O)=O)cnc(C)c1O)C(O)=O

> <INCHI>
InChI=1S/C11H17N2O7P/c1-6-10(14)9(4-13-7(2)11(15)16)8(3-12-6)5-20-21(17,18)19/h3,7,13-14H,4-5H2,1-2H3,(H,15,16)(H2,17,18,19)/t7-/m0/s1

> <INCHIKEY>
WACJCHFWJNNBPR-ZETCQYMHSA-N

> <BEILSTEIN_REGISTRY_NUMBER>
6072353

> <PDBECHEM_ACCESSION>
PP3

> <PUBMED_CITATION>
11886871; 15805602; 16790434

$$$$

Marvin  05241013482D          

 30 33  0  0  0  0            999 V2000
   11.8553  -10.1576    0.0000 O   0  0  0  0  0  0  0  0  0  0  0  0
   12.5698   -9.7449    0.0000 C   0  0  0  0  0  0  0  0  0  0  0  0
   13.2841  -10.1576    0.0000 O   0  0  0  0  0  0  0  0  0  0  0  0
   12.5698   -8.9206    0.0000 C   0  0  0  0  0  0  0  0  0  0  0  0
   13.2841   -8.5078    0.0000 C   0  0  0  0  0  0  0  0  0  0  0  0
   13.2841   -7.6829    0.0000 C   0  0  0  0  0  0  0  0  0  0  0  0
   12.5698   -7.2707    0.0000 C   0  0  0  0  0  0  0  0  0  0  0  0
   11.8553   -7.6829    0.0000 C   0  0  0  0  0  0  0  0  0  0  0  0
   11.8553   -8.5078    0.0000 C   0  0  0  0  0  0  0  0  0  0  0  0
   12.5891   -5.6906    0.0000 C   0  0  0  0  0  0  0  0  0  0  0  0
   13.3034   -5.2778    0.0000 C   0  0  0  0  0  0  0  0  0  0  0  0
   14.0179   -5.6906    0.0000 C   0  0  0  0  0  0  0  0  0  0  0  0
   14.7322   -5.2778    0.0000 C   0  0  0  0  0  0  0  0  0  0  0  0
   15.4466   -5.6906    0.0000 F   0  0  0  0  0  0  0  0  0  0  0  0
   14.7322   -4.4536    0.0000 C   0  0  0  0  0  0  0  0  0  0  0  0
   15.4466   -4.0407    0.0000 O   0  0  0  0  0  0  0  0  0  0  0  0
   14.0179   -4.0407    0.0000 C   0  0  0  0  0  0  0  0  0  0  0  0
   13.3034   -4.4536    0.0000 C   0  0  0  0  0  0  0  0  0  0  0  0
   12.5891   -4.0407    0.0000 O   0  0  0  0  0  0  0  0  0  0  0  0
   11.8747   -4.4536    0.0000 C   0  0  0  0  0  0  0  0  0  0  0  0
   11.1604   -4.0407    0.0000 C   0  0  0  0  0  0  0  0  0  0  0  0
   10.4459   -4.4536    0.0000 C   0  0  0  0  0  0  0  0  0  0  0  0
    9.7316   -4.0407    0.0000 O   0  0  0  0  0  0  0  0  0  0  0  0
   10.4459   -5.2778    0.0000 C   0  0  0  0  0  0  0  0  0  0  0  0
    9.7316   -5.6906    0.0000 F   0  0  0  0  0  0  0  0  0  0  0  0
   11.1604   -5.6906    0.0000 C   0  0  0  0  0  0  0  0  0  0  0  0
   11.8747   -5.2778    0.0000 C   0  0  0  0  0  0  0  0  0  0  0  0
   13.9985   -7.2703    0.0000 C   0  0  0  0  0  0  0  0  0  0  0  0
   13.9984   -6.4453    0.0000 O   0  0  0  0  0  0  0  0  0  0  0  0
   14.7130   -7.6827    0.0000 O   0  0  0  0  0  0  0  0  0  0  0  0
  1  2  1  0  0  0  0
  2  3  2  0  0  0  0
  2  4  1  0  0  0  0
  4  5  2  0  0  0  0
  4  9  1  0  0  0  0
  5  6  1  0  0  0  0
  6  7  2  0  0  0  0
  7  8  1  0  0  0  0
  8  9  2  0  0  0  0
 10 11  2  0  0  0  0
 10 27  1  0  0  0  0
 11 12  1  0  0  0  0
 11 18  1  0  0  0  0
 12 13  2  0  0  0  0
 13 14  1  0  0  0  0
 13 15  1  0  0  0  0
 15 16  2  0  0  0  0
 15 17  1  0  0  0  0
 17 18  2  0  0  0  0
 18 19  1  0  0  0  0
 19 20  1  0  0  0  0
 20 21  1  0  0  0  0
 20 27  2  0  0  0  0
 21 22  2  0  0  0  0
 22 23  1  0  0  0  0
 22 24  1  0  0  0  0
 24 25  1  0  0  0  0
 24 26  2  0  0  0  0
 26 27  1  0  0  0  0
  6 28  1  0  0  0  0
 10  7  1  0  0  0  0
 28 29  2  0  0  0  0
 28 30  1  0  0  0  0
M  END
> <ID>
CHEBI:44777

> <NAME>
oregon green 488

> <DEFINITION>
A xanthene dye having two fluoro substituents at the 2- and 7-positions and a 2,4-dicarboxyphenyl group at the 9-position.

> <STAR>
3

> <SYNONYM>
oregon green 488 carboxylic acid; oregon green 488 carboxylate; 4-(2,7-DIFLUORO-6-HYDROXY-3-OXO-3H-XANTHEN-9-YL)ISOPHTHALIC ACID; 4-(2,7-difluoro-6-hydroxy-3-oxo-3H-xanthen-9-yl)isophthalic acid

> <IUPAC_NAME>
4-(2,7-difluoro-6-hydroxy-3-oxo-3H-xanthen-9-yl)benzene-1,3-dicarboxylic acid

> <FORMULA>
C21H10F2O7

> <MASS>
412.29670

> <MONOISOTOPIC_MASS>
412.03946

> <CHARGE>
0

> <SMILES>
OC(=O)c1ccc(c(c1)C(O)=O)-c1c2cc(F)c(O)cc2oc2cc(=O)c(F)cc12

> <INCHI>
InChI=1S/C21H10F2O7/c22-13-4-11-17(6-15(13)24)30-18-7-16(25)14(23)5-12(18)19(11)9-2-1-8(20(26)27)3-10(9)21(28)29/h1-7,24H,(H,26,27)(H,28,29)

> <INCHIKEY>
BRJCLSQFZSHLRL-UHFFFAOYSA-N

> <BEILSTEIN_REGISTRY_NUMBER>
7837365

> <REAXYS_REGISTRY_NUMBER>
7837365

> <DRUGBANK_ACCESSION>
DB04750

> <PDB_ACCESSION>
2A9N

> <PDBECHEM_ACCESSION>
ORE

> <PUBMED_CITATION>
16195545

$$$$

Marvin  06151013042D          

 23 23  0  0  1  0            999 V2000
   21.3963   -8.1948    0.0000 O   0  0  0  0  0  0  0  0  0  0  0  0
   20.6819   -8.6073    0.0000 C   0  0  0  0  0  0  0  0  0  0  0  0
   20.6819   -9.4323    0.0000 O   0  0  0  0  0  0  0  0  0  0  0  0
   19.9673   -8.1947    0.0000 C   0  0  0  0  0  0  0  0  0  0  0  0
   19.2530   -8.6071    0.0000 N   0  0  0  0  0  0  0  0  0  0  0  0
   18.5385   -8.1946    0.0000 C   0  0  0  0  0  0  0  0  0  0  0  0
   18.5385   -7.3696    0.0000 O   0  0  0  0  0  0  0  0  0  0  0  0
   17.8240   -8.6071    0.0000 C   0  0  0  0  0  0  0  0  0  0  0  0
   17.1097   -8.1947    0.0000 C   0  0  0  0  0  0  0  0  0  0  0  0
   16.3955   -8.6068    0.0000 C   0  0  0  0  0  0  0  0  0  0  0  0
   15.6810   -8.1943    0.0000 P   0  0  0  0  0  0  0  0  0  0  0  0
   16.0936   -7.4798    0.0000 O   0  0  0  0  0  0  0  0  0  0  0  0
   15.2686   -8.9086    0.0000 O   0  0  0  0  0  0  0  0  0  0  0  0
   14.9667   -7.7818    0.0000 O   0  0  0  0  0  0  0  0  0  0  0  0
   14.2522   -8.1943    0.0000 C   0  0  0  0  0  0  0  0  0  0  0  0
   14.2521   -9.0193    0.0000 C   0  0  0  0  0  0  0  0  0  0  0  0
   13.5376   -9.4319    0.0000 C   0  0  0  0  0  0  0  0  0  0  0  0
   12.8231   -9.0194    0.0000 C   0  0  0  0  0  0  0  0  0  0  0  0
   12.8233   -8.1943    0.0000 C   0  0  0  0  0  0  0  0  0  0  0  0
   13.5377   -7.7818    0.0000 C   0  0  0  0  0  0  0  0  0  0  0  0
   12.1087   -9.4319    0.0000 N   0  3  0  0  0  0  0  0  0  0  0  0
   12.1088  -10.2565    0.0000 O   0  5  0  0  0  0  0  0  0  0  0  0
   11.3942   -9.0194    0.0000 O   0  0  0  0  0  0  0  0  0  0  0  0
  1  2  1  0  0  0  0
  2  3  2  0  0  0  0
  2  4  1  0  0  0  0
  4  5  1  0  0  0  0
  5  6  1  0  0  0  0
  6  7  2  0  0  0  0
  6  8  1  0  0  0  0
  8  9  1  0  0  0  0
  9 10  1  0  0  0  0
 10 11  1  0  0  0  0
 11 12  1  0  0  0  0
 11 13  2  0  0  0  0
 11 14  1  0  0  0  0
 14 15  1  0  0  0  0
 15 16  1  0  0  0  0
 15 20  2  0  0  0  0
 16 17  2  0  0  0  0
 17 18  1  0  0  0  0
 18 19  2  0  0  0  0
 18 21  1  0  0  0  0
 19 20  1  0  0  0  0
 21 22  1  0  0  0  0
 21 23  2  0  0  0  0
M  CHG  2  21   1  22  -1
M  END
> <ID>
CHEBI:44930

> <NAME>
N-(p-nitrophenylphosphobutanoyl)glycine

> <DEFINITION>
A C-nitro compound that is the N-(p-nitrophenylphosphobutyryl) derivative of glycine; a cognate transition state analogue of the esterase-like catalytic antibody D2.3.

> <STAR>
3

> <SYNONYM>
N-[4-(4-nitrophenylphospho)butanoyl]glycine; 4-nitrophenylphosphobutanoyl-glycine

> <IUPAC_NAME>
N-{4-[hydroxy(4-nitrophenoxy)phosphoryl]butanoyl}glycine

> <FORMULA>
C12H15N2O8P

> <MASS>
346.22990

> <MONOISOTOPIC_MASS>
346.05660

> <CHARGE>
0

> <SMILES>
OC(=O)CNC(=O)CCCP(O)(=O)Oc1ccc(cc1)[N+]([O-])=O

> <INCHI>
InChI=1S/C12H15N2O8P/c15-11(13-8-12(16)17)2-1-7-23(20,21)22-10-5-3-9(4-6-10)14(18)19/h3-6H,1-2,7-8H2,(H,13,15)(H,16,17)(H,20,21)

> <INCHIKEY>
WLNKGRQBMNPVSJ-UHFFFAOYSA-N

> <BEILSTEIN_REGISTRY_NUMBER>
6350644

> <REAXYS_REGISTRY_NUMBER>
6350644

> <PDB_ACCESSION>
1YEI

> <PDBECHEM_ACCESSION>
PGG

> <PUBMED_CITATION>
9826512

$$$$

Marvin  06091011492D          

 23 23  0  0  0  0            999 V2000
   11.5995  -13.8063    0.0000 O   0  0  0  0  0  0  0  0  0  0  0  0
   11.5995  -12.9814    0.0000 C   0  0  0  0  0  0  0  0  0  0  0  0
   12.3140  -12.5690    0.0000 O   0  0  0  0  0  0  0  0  0  0  0  0
   10.8850  -12.5690    0.0000 C   0  0  0  0  0  0  0  0  0  0  0  0
   10.1711  -12.9814    0.0000 N   0  0  0  0  0  0  0  0  0  0  0  0
    9.4566  -12.5690    0.0000 C   0  0  0  0  0  0  0  0  0  0  0  0
    9.4566  -11.7440    0.0000 O   0  0  0  0  0  0  0  0  0  0  0  0
    8.7421  -12.9814    0.0000 C   0  0  0  0  0  0  0  0  0  0  0  0
    8.0276  -12.5690    0.0000 C   0  0  0  0  0  0  0  0  0  0  0  0
    7.3131  -12.9814    0.0000 C   0  0  0  0  0  0  0  0  0  0  0  0
    6.5985  -12.5690    0.0000 C   0  0  0  0  0  0  0  0  0  0  0  0
    6.5985  -11.7440    0.0000 O   0  0  0  0  0  0  0  0  0  0  0  0
    5.8847  -12.9814    0.0000 N   0  0  0  0  0  0  0  0  0  0  0  0
    5.1701  -12.5694    0.0000 C   0  0  0  0  0  0  0  0  0  0  0  0
    4.4558  -12.9824    0.0000 C   0  0  0  0  0  0  0  0  0  0  0  0
    4.4563  -13.8074    0.0000 C   0  0  0  0  0  0  0  0  0  0  0  0
    3.7421  -14.2203    0.0000 C   0  0  0  0  0  0  0  0  0  0  0  0
    3.0274  -13.8083    0.0000 C   0  0  0  0  0  0  0  0  0  0  0  0
    3.0271  -12.9833    0.0000 C   0  0  0  0  0  0  0  0  0  0  0  0
    3.7412  -12.5703    0.0000 C   0  0  0  0  0  0  0  0  0  0  0  0
    2.3132  -14.2214    0.0000 N   0  3  0  0  0  0  0  0  0  0  0  0
    2.3140  -15.0458    0.0000 O   0  5  0  0  0  0  0  0  0  0  0  0
    1.5985  -13.8093    0.0000 O   0  0  0  0  0  0  0  0  0  0  0  0
  1  2  2  0  0  0  0
  2  3  1  0  0  0  0
  2  4  1  0  0  0  0
  4  5  1  0  0  0  0
  5  6  1  0  0  0  0
  6  7  2  0  0  0  0
  6  8  1  0  0  0  0
  8  9  1  0  0  0  0
  9 10  1  0  0  0  0
 10 11  1  0  0  0  0
 11 12  2  0  0  0  0
 11 13  1  0  0  0  0
 13 14  1  0  0  0  0
 14 15  1  0  0  0  0
 15 16  1  0  0  0  0
 15 20  2  0  0  0  0
 16 17  2  0  0  0  0
 17 18  1  0  0  0  0
 18 19  2  0  0  0  0
 18 21  1  0  0  0  0
 19 20  1  0  0  0  0
 21 22  1  0  0  0  0
 21 23  2  0  0  0  0
M  CHG  2  21   1  22  -1
M  END
> <ID>
CHEBI:44939

> <NAME>
p-nitrobenzyl glutaryl glycinic acid

> <DEFINITION>
A glycine derivative in which a glycine core carries an N-{5-[(4-nitrobenzyl)amino]-5-oxopentanoyl} substituent.

> <STAR>
3

> <SYNONYM>
2-[[5-[(4-nitrophenyl)methylamino]-5-oxopentanoyl]amino]ethanoic acid

> <IUPAC_NAME>
N-{5-[(4-nitrobenzyl)amino]-5-oxopentanoyl}glycine

> <FORMULA>
C14H17N3O6

> <MASS>
323.30130

> <MONOISOTOPIC_MASS>
323.11174

> <CHARGE>
0

> <SMILES>
OC(=O)CNC(=O)CCCC(=O)NCc1ccc(cc1)[N+]([O-])=O

> <INCHI>
InChI=1S/C14H17N3O6/c18-12(2-1-3-13(19)16-9-14(20)21)15-8-10-4-6-11(7-5-10)17(22)23/h4-7H,1-3,8-9H2,(H,15,18)(H,16,19)(H,20,21)

> <INCHIKEY>
UCFVFUIGNWHAJJ-UHFFFAOYSA-N

> <DRUGBANK_ACCESSION>
DB08410

> <PDB_ACCESSION>
1YEF

> <PDBECHEM_ACCESSION>
PNC

> <PUBMED_CITATION>
9223277

$$$$

Ketcher 12311616582D 1   1.00000     0.00000     0

 24 24  0     0  0            999 V2000
    0.7857   -0.9642    0.0000 C   0  0  0  0  0  0  0  0  0  0  0  0
    1.6517   -0.4642    0.0000 C   0  0  0  0  0  0  0  0  0  0  0  0
    2.5178   -0.9642    0.0000 O   0  0  0  0  0  0  0  0  0  0  0  0
    1.6517    0.5358    0.0000 O   0  0  0  0  0  0  0  0  0  0  0  0
   -0.0804   -0.4642    0.0000 N   0  0  0  0  0  0  0  0  0  0  0  0
    0.7857   -1.9642    0.0000 C   0  0  0  0  0  0  0  0  0  0  0  0
   -0.9463   -0.9642    0.0000 C   0  0  0  0  0  0  0  0  0  0  0  0
   -1.8124   -0.4642    0.0000 C   0  0  0  0  0  0  0  0  0  0  0  0
   -0.9463   -1.9642    0.0000 O   0  0  0  0  0  0  0  0  0  0  0  0
   -2.6784   -0.9642    0.0000 C   0  0  0  0  0  0  0  0  0  0  0  0
   -3.5443   -0.4642    0.0000 C   0  0  0  0  0  0  0  0  0  0  0  0
   -4.4104   -0.9642    0.0000 P   0  0  0  0  0  0  0  0  0  0  0  0
   -5.2765   -0.4642    0.0000 O   0  0  0  0  0  0  0  0  0  0  0  0
   -6.1425   -0.9642    0.0000 C   0  0  0  0  0  0  0  0  0  0  0  0
   -7.0084   -0.4642    0.0000 C   0  0  0  0  0  0  0  0  0  0  0  0
   -7.8745   -0.9642    0.0000 C   0  0  0  0  0  0  0  0  0  0  0  0
   -7.8745   -1.9644    0.0000 C   0  0  0  0  0  0  0  0  0  0  0  0
   -7.0084   -2.4643    0.0000 C   0  0  0  0  0  0  0  0  0  0  0  0
   -6.1425   -1.9644    0.0000 C   0  0  0  0  0  0  0  0  0  0  0  0
   -4.4104   -1.9642    0.0000 O   0  0  0  0  0  0  0  0  0  0  0  0
   -4.6692    0.0017    0.0000 O   0  0  0  0  0  0  0  0  0  0  0  0
   -8.7406   -2.4642    0.0000 N   0  0  0  0  0  0  0  0  0  0  0  0
   -8.7406   -3.4642    0.0000 O   0  0  0  0  0  0  0  0  0  0  0  0
   -9.6065   -1.9642    0.0000 O   0  0  0  0  0  0  0  0  0  0  0  0
  1  2  1  0     0  0
  2  3  1  0     0  0
  2  4  2  0     0  0
  1  5  1  0     0  0
  1  6  1  1     0  0
  5  7  1  0     0  0
  7  8  1  0     0  0
  7  9  2  0     0  0
  8 10  1  0     0  0
 10 11  1  0     0  0
 11 12  1  0     0  0
 12 13  1  0     0  0
 13 14  1  0     0  0
 19 14  2  0     0  0
 15 14  1  0     0  0
 15 16  2  0     0  0
 16 17  1  0     0  0
 17 18  2  0     0  0
 18 19  1  0     0  0
 12 20  2  0     0  0
 12 21  1  0     0  0
 17 22  1  0     0  0
 22 23  2  0     0  0
 22 24  1  0     0  0
M  CHG  2  22   1  24  -1
M  END
> <ID>
CHEBI:45002

> <NAME>
N-[4-(4-nitrophenylphospho)butanoyl]-D-alanine

> <DEFINITION>
An N-[4-(4-nitrophenylphospho)butanoyl]alanine that has R at the chiral carbon.

> <STAR>
3

> <SECONDARY_ID>
CHEBI:44855; CHEBI:45000

> <SYNONYM>
PARA-NITROPHENYL PHOSPHONOBUTANOYL D-ALANINE; p-nitrophenyl phosphonobutanoyl D-alanine; N-[4-(4-nitrophenylphospho)butyryl]-D-alanine

> <IUPAC_NAME>
N-{4-[hydroxy(4-nitrophenoxy)phosphoryl]butanoyl}-D-alanine

> <FORMULA>
C13H17N2O8P

> <MASS>
360.257

> <MONOISOTOPIC_MASS>
360.07225

> <CHARGE>
0

> <SMILES>
[C@@H](C(O)=O)(NC(CCCP(OC1=CC=C(C=C1)[N+](=O)[O-])(=O)O)=O)C

> <INCHI>
InChI=1S/C13H17N2O8P/c1-9(13(17)18)14-12(16)3-2-8-24(21,22)23-11-6-4-10(5-7-11)15(19)20/h4-7,9H,2-3,8H2,1H3,(H,14,16)(H,17,18)(H,21,22)/t9-/m1/s1

> <INCHIKEY>
KBXXIYHMPQZHCH-SECBINFHSA-N

> <BEILSTEIN_REGISTRY_NUMBER>
9151197

> <REAXYS_REGISTRY_NUMBER>
9151197

> <DRUGBANK_ACCESSION>
DB08377

> <PDB_ACCESSION>
1KN4

> <PDBECHEM_ACCESSION>
PDE

> <PUBMED_CITATION>
11878955

$$$$

Marvin  06111017002D          

 27 27  0  0  1  0            999 V2000
   15.7587   -9.6947    0.0000 O   0  0  0  0  0  0  0  0  0  0  0  0
   16.5836   -9.6947    0.0000 C   0  0  0  0  0  0  0  0  0  0  0  0
   16.9961  -10.4086    0.0000 O   0  0  0  0  0  0  0  0  0  0  0  0
   16.9961   -8.9801    0.0000 C   0  0  0  0  0  0  0  0  0  0  0  0
   17.8211   -8.9801    0.0000 C   0  0  0  0  0  0  0  0  0  0  0  0
   18.2335   -8.2656    0.0000 C   0  0  0  0  0  0  0  0  0  0  0  0
   19.0585   -8.2656    0.0000 C   0  0  0  0  0  0  0  0  0  0  0  0
   19.4710   -7.5511    0.0000 C   0  0  0  0  0  0  0  0  0  0  0  0
   20.2959   -7.5511    0.0000 N   0  0  0  0  0  0  0  0  0  0  0  0
   20.7084   -6.8365    0.0000 C   0  0  0  0  0  0  0  0  0  0  0  0
   21.5333   -6.8365    0.0000 O   0  0  0  0  0  0  0  0  0  0  0  0
   20.2959   -6.1220    0.0000 C   0  0  0  0  0  0  0  0  0  0  0  0
   19.4710   -6.1220    0.0000 C   0  0  0  0  0  0  0  0  0  0  0  0
   19.0585   -5.4081    0.0000 C   0  0  0  0  0  0  0  0  0  0  0  0
   18.2335   -5.4081    0.0000 P   0  0  0  0  0  0  0  0  0  0  0  0
   18.2335   -6.2330    0.0000 O   0  0  0  0  0  0  0  0  0  0  0  0
   18.2335   -4.5831    0.0000 O   0  0  0  0  0  0  0  0  0  0  0  0
   17.4086   -5.4081    0.0000 O   0  0  0  0  0  0  0  0  0  0  0  0
   16.9961   -4.6935    0.0000 C   0  0  0  0  0  0  0  0  0  0  0  0
   17.4086   -3.9790    0.0000 C   0  0  0  0  0  0  0  0  0  0  0  0
   16.9961   -3.2644    0.0000 C   0  0  0  0  0  0  0  0  0  0  0  0
   16.1712   -3.2644    0.0000 C   0  0  0  0  0  0  0  0  0  0  0  0
   15.7587   -3.9790    0.0000 C   0  0  0  0  0  0  0  0  0  0  0  0
   16.1712   -4.6935    0.0000 C   0  0  0  0  0  0  0  0  0  0  0  0
   15.7587   -2.5499    0.0000 N   0  3  0  0  0  0  0  0  0  0  0  0
   16.1712   -1.8360    0.0000 O   0  5  0  0  0  0  0  0  0  0  0  0
   14.9338   -2.5499    0.0000 O   0  0  0  0  0  0  0  0  0  0  0  0
  1  2  1  0  0  0  0
  2  3  2  0  0  0  0
  2  4  1  0  0  0  0
  4  5  1  0  0  0  0
  5  6  1  0  0  0  0
  6  7  1  0  0  0  0
  7  8  1  0  0  0  0
  8  9  1  0  0  0  0
  9 10  1  0  0  0  0
 10 11  2  0  0  0  0
 10 12  1  0  0  0  0
 12 13  1  0  0  0  0
 13 14  1  0  0  0  0
 14 15  1  0  0  0  0
 15 16  1  0  0  0  0
 15 17  2  0  0  0  0
 15 18  1  0  0  0  0
 18 19  1  0  0  0  0
 19 20  1  0  0  0  0
 19 24  2  0  0  0  0
 20 21  2  0  0  0  0
 21 22  1  0  0  0  0
 22 23  2  0  0  0  0
 22 25  1  0  0  0  0
 23 24  1  0  0  0  0
 25 26  1  0  0  0  0
 25 27  2  0  0  0  0
M  CHG  2  25   1  26  -1
M  END
> <ID>
CHEBI:45068

> <NAME>
6-{4-[hydroxy-(4-nitrophenoxy)phosphoryl]butyrylamino}hexanoic acid

> <DEFINITION>
An organic phosphonate and derivative of hexanoic acid and cognate transition state analogue of the esterase-like catalytic antibody D2.3.

> <STAR>
3

> <SYNONYM>
6-({4-[hydroxy(4-nitrophenoxy)phosphoryl]butanoyl}amino)hexanoic acid

> <IUPAC_NAME>
6-{4-[hydroxy(4-nitrophenoxy)phosphoryl]butanamido}hexanoic acid

> <FORMULA>
C16H23N2O8P

> <MASS>
402.33620

> <MONOISOTOPIC_MASS>
402.11920

> <CHARGE>
0

> <SMILES>
OC(=O)CCCCCNC(=O)CCCP(O)(=O)Oc1ccc(cc1)[N+]([O-])=O

> <INCHI>
InChI=1S/C16H23N2O8P/c19-15(17-11-3-1-2-6-16(20)21)5-4-12-27(24,25)26-14-9-7-13(8-10-14)18(22)23/h7-10H,1-6,11-12H2,(H,17,19)(H,20,21)(H,24,25)

> <INCHIKEY>
WYHHVZLGTMCKOR-UHFFFAOYSA-N

> <DRUGBANK_ACCESSION>
DB08412

> <PDB_ACCESSION>
1YEJ

> <PDBECHEM_ACCESSION>
PNF

> <PUBMED_CITATION>
9826512

$$$$

Ketcher 07311622422D 1   1.00000     0.00000     0

 16 15  0     0  0            999 V2000
   12.0477  -30.0806    0.0000 C   0  0  0  0  0  0  0  0  0  0  0  0
   12.0477  -31.0806    0.0000 C   0  0  0  0  0  0  0  0  0  0  0  0
   11.1815  -29.5805    0.0000 C   0  0  0  0  0  0  0  0  0  0  0  0
   11.1815  -31.5807    0.0000 C   0  0  0  0  0  0  0  0  0  0  0  0
   10.3154  -30.0806    0.0000 C   0  0  0  0  0  0  0  0  0  0  0  0
   10.3154  -31.0806    0.0000 C   0  0  0  0  0  0  0  0  0  0  0  0
   12.9137  -29.5805    0.0000 C   0  0  0  0  0  0  0  0  0  0  0  0
   13.7797  -30.0806    0.0000 C   0  0  0  0  0  0  0  0  0  0  0  0
   12.9137  -31.5806    0.0000 C   0  0  0  0  0  0  0  0  0  0  0  0
   13.7797  -31.0806    0.0000 C   0  0  0  0  0  0  0  0  0  0  0  0
   14.6458  -29.5808    0.0000 C   0  0  0  0  0  0  0  0  0  0  0  0
   15.5117  -30.0809    0.0000 C   0  0  0  0  0  0  0  0  0  0  0  0
   14.6457  -31.5807    0.0000 C   0  0  0  0  0  0  0  0  0  0  0  0
   15.5117  -31.0808    0.0000 C   0  0  0  0  0  0  0  0  0  0  0  0
   16.3777  -29.5811    0.0000 C   0  0  0  0  0  0  0  0  0  0  0  0
   16.3774  -31.5808    0.0000 C   0  0  0  0  0  0  0  0  0  0  0  0
  3  1  1  0     0  0
  4  2  1  0     0  0
  5  3  1  0     0  0
  6  4  1  0     0  0
  6  5  1  0     0  0
  7  1  1  0     0  0
  8  7  1  0     0  0
  9  2  1  0     0  0
 10  9  1  0     0  0
 11  8  1  0     0  0
 12 11  1  0     0  0
 13 10  1  0     0  0
 14 13  1  0     0  0
 15 12  1  0     0  0
 16 14  1  0     0  0
M  END
> <ID>
CHEBI:45296

> <NAME>
hexadecane

> <DEFINITION>
A straight-chain alkane with 16 carbon atoms. It is a component of essential oil isolated from long pepper.

> <STAR>
3

> <SECONDARY_ID>
CHEBI:45292; CHEBI:32910

> <SYNONYM>
Zetan; n-hexadecane; n-cetane; Hexadekan; HEXADECANE; CH3-[CH2]14-CH3; cetane; Cetan

> <IUPAC_NAME>
hexadecane

> <FORMULA>
C16H34

> <MASS>
226.442

> <MONOISOTOPIC_MASS>
226.26605

> <CHARGE>
0

> <SMILES>
C(CCCCCCCCCC)CCCCC

> <INCHI>
InChI=1S/C16H34/c1-3-5-7-9-11-13-15-16-14-12-10-8-6-4-2/h3-16H2,1-2H3

> <INCHIKEY>
DCAYPVUWAIABOU-UHFFFAOYSA-N

> <BEILSTEIN_REGISTRY_NUMBER>
1736592

> <CAS_REGISTRY_NUMBER>
544-76-3

> <GMELIN_REGISTRY_NUMBER>
103739

> <REAXYS_REGISTRY_NUMBER>
1736592

> <CHEMIDPLUS>
544-76-3

> <HMDB_ACCESSION>
HMDB0033792

> <NIST_CHEMISTRY_WEBBOOK>
544-76-3

> <PDBECHEM_ACCESSION>
R16

> <WIKIPEDIA_ACCESSION>
Hexadecane

> <PUBMED_CITATION>
17314143; 19114507; 205235; 24657864; 24765642; 2480087; 27439360

$$$$

Marvin  05061109362D          

 34 37  0  0  1  0            999 V2000
   10.3534   -4.9197    0.0000 C   0  0  0  0  0  0  0  0  0  0  0  0
   11.0678   -6.9822    0.0000 C   0  0  0  0  0  0  0  0  0  0  0  0
    9.6389   -6.9822    0.0000 C   0  0  2  0  0  0  0  0  0  0  0  0
    8.9244   -5.7447    0.0000 C   0  0  0  0  0  0  0  0  0  0  0  0
   11.0678   -4.5072    0.0000 C   0  0  0  0  0  0  0  0  0  0  0  0
   12.5669   -5.9995    0.0000 C   0  0  0  0  0  0  0  0  0  0  0  0
   10.3534   -7.3947    0.0000 C   0  0  0  0  0  0  0  0  0  0  0  0
    8.9244   -7.3947    0.0000 C   0  0  0  0  0  0  0  0  0  0  0  0
    8.2100   -6.1572    0.0000 C   0  0  0  0  0  0  0  0  0  0  0  0
   13.0519   -5.3322    0.0000 C   0  0  0  0  0  0  0  0  0  0  0  0
    8.2100   -6.9822    0.0000 C   0  0  2  0  0  0  0  0  0  0  0  0
    7.4955   -7.3947    0.0000 O   0  0  0  0  0  0  0  0  0  0  0  0
    9.6389   -7.8072    0.0000 H   0  0  0  0  0  0  0  0  0  0  0  0
   10.3534   -5.7447    0.0000 C   0  0  1  0  0  0  0  0  0  0  0  0
   10.3534   -6.5697    0.0000 H   0  0  0  0  0  0  0  0  0  0  0  0
   11.7822   -5.7447    0.0000 C   0  0  1  0  0  0  0  0  0  0  0  0
   11.7822   -6.5697    0.0000 H   0  0  0  0  0  0  0  0  0  0  0  0
   11.0678   -6.1572    0.0000 C   0  0  2  0  0  0  0  0  0  0  0  0
   11.0678   -5.3322    0.0000 H   0  0  0  0  0  0  0  0  0  0  0  0
    9.6389   -6.1572    0.0000 C   0  0  2  0  0  0  0  0  0  0  0  0
    9.6389   -5.3322    0.0000 C   0  0  0  0  0  0  0  0  0  0  0  0
   11.7822   -4.9197    0.0000 C   0  0  2  0  0  0  0  0  0  0  0  0
   11.7822   -4.0947    0.0000 C   0  0  0  0  0  0  0  0  0  0  0  0
   12.5669   -4.6647    0.0000 C   0  0  1  0  0  0  0  0  0  0  0  0
   13.5773   -3.6543    0.0000 C   0  0  0  0  0  0  0  0  0  0  0  0
   12.7805   -3.8679    0.0000 C   0  0  0  0  0  0  0  0  0  0  0  0
   12.1971   -3.2845    0.0000 O   0  0  0  0  0  0  0  0  0  0  0  0
    6.7810   -6.9821    0.0000 C   0  0  0  0  0  0  0  0  0  0  0  0
    6.0665   -7.3946    0.0000 C   0  0  0  0  0  0  0  0  0  0  0  0
    5.3521   -6.9821    0.0000 C   0  0  0  0  0  0  0  0  0  0  0  0
    4.6376   -7.3946    0.0000 C   0  0  0  0  0  0  0  0  0  0  0  0
    3.9231   -6.9821    0.0000 O   0  0  0  0  0  0  0  0  0  0  0  0
    4.6376   -8.2196    0.0000 O   0  0  0  0  0  0  0  0  0  0  0  0
    6.7810   -6.1571    0.0000 O   0  0  0  0  0  0  0  0  0  0  0  0
 14 18  1  0  0  0  0
 14 20  1  0  0  0  0
 14  1  1  0  0  0  0
 18 16  1  0  0  0  0
 18  2  1  0  0  0  0
 20  3  1  0  0  0  0
 20  4  1  0  0  0  0
  1  5  1  0  0  0  0
 16 22  1  0  0  0  0
 16  6  1  0  0  0  0
  2  7  1  0  0  0  0
  3  8  1  0  0  0  0
  4  9  1  0  0  0  0
 22 24  1  0  0  0  0
  6 10  1  0  0  0  0
  8 11  1  0  0  0  0
 11 12  1  1  0  0  0
  3  7  1  0  0  0  0
  5 22  1  0  0  0  0
  9 11  1  0  0  0  0
 24 10  1  0  0  0  0
  3 13  1  1  0  0  0
 14 15  1  6  0  0  0
 16 17  1  6  0  0  0
 18 19  1  1  0  0  0
 20 21  1  1  0  0  0
 22 23  1  1  0  0  0
 24 26  1  1  0  0  0
 26 25  1  0  0  0  0
 26 27  2  0  0  0  0
 12 28  1  0  0  0  0
 28 29  1  0  0  0  0
 29 30  1  0  0  0  0
 30 31  1  0  0  0  0
 31 32  1  0  0  0  0
 31 33  2  0  0  0  0
 28 34  2  0  0  0  0
M  END
> <ID>
CHEBI:45352

> <NAME>
3beta-hydroxy-5beta-pregnan-20-one hemisuccinate

> <DEFINITION>
A sterol ester that is the O-succinoyl derivative of 3β-hydroxy-5β-pregnan-20-one.

> <STAR>
3

> <SYNONYM>
succinic acid mono-(20-oxo-5beta-pregnan-3beta-yl ester); 3beta-hydroxy-5beta-pregnan-20-one succinate

> <IUPAC_NAME>
4-oxo-4-{[(3beta,5beta)-20-oxopregnan-3-yl]oxy}butanoic acid

> <FORMULA>
C25H38O5

> <MASS>
418.56620

> <MONOISOTOPIC_MASS>
418.27192

> <CHARGE>
0

> <SMILES>
[H][C@]12CC[C@@]3([H])[C@]4([H])CC[C@H](C(C)=O)[C@@]4(C)CC[C@]3([H])[C@@]1(C)CC[C@@H](C2)OC(=O)CCC(O)=O

> <INCHI>
InChI=1S/C25H38O5/c1-15(26)19-6-7-20-18-5-4-16-14-17(30-23(29)9-8-22(27)28)10-12-24(16,2)21(18)11-13-25(19,20)3/h16-21H,4-14H2,1-3H3,(H,27,28)/t16-,17+,18+,19-,20+,21+,24+,25-/m1/s1

> <INCHIKEY>
UVTGFMKBPVLATL-MFKGMXCUSA-N

> <REAXYS_REGISTRY_NUMBER>
3225991

> <PDBECHEM_ACCESSION>
S5H

> <PUBMED_CITATION>
8496956

$$$$

Marvin  06021015592D          

 40 43  0  0  0  0            999 V2000
    5.3555   -4.9370    0.0000 N   0  0  0  0  0  0  0  0  0  0  0  0
    5.3555   -5.7620    0.0000 C   0  0  0  0  0  0  0  0  0  0  0  0
    4.6415   -6.1744    0.0000 N   0  0  0  0  0  0  0  0  0  0  0  0
    4.6415   -6.9994    0.0000 C   0  0  0  0  0  0  0  0  0  0  0  0
    3.9270   -7.4118    0.0000 N   0  0  0  0  0  0  0  0  0  0  0  0
    5.3555   -7.4118    0.0000 N   0  0  0  0  0  0  0  0  0  0  0  0
    6.0700   -6.9994    0.0000 C   0  0  0  0  0  0  0  0  0  0  0  0
    6.7845   -7.4118    0.0000 N   0  0  0  0  0  0  0  0  0  0  0  0
    6.7845   -8.2368    0.0000 C   0  0  0  0  0  0  0  0  0  0  0  0
    6.0700   -8.6493    0.0000 C   0  0  0  0  0  0  0  0  0  0  0  0
    6.0700   -9.4743    0.0000 C   0  0  0  0  0  0  0  0  0  0  0  0
    6.7845   -9.8867    0.0000 C   0  0  0  0  0  0  0  0  0  0  0  0
    7.4991   -9.4743    0.0000 C   0  0  0  0  0  0  0  0  0  0  0  0
    8.2136   -9.8867    0.0000 C   0  0  0  0  0  0  0  0  0  0  0  0
    8.9275   -9.4743    0.0000 C   0  0  0  0  0  0  0  0  0  0  0  0
    8.9275   -8.6493    0.0000 C   0  0  0  0  0  0  0  0  0  0  0  0
    9.6421   -8.2368    0.0000 N   0  0  0  0  0  0  0  0  0  0  0  0
    9.6421   -7.4118    0.0000 N   0  0  0  0  0  0  0  0  0  0  0  0
   10.3566   -6.9994    0.0000 C   0  0  0  0  0  0  0  0  0  0  0  0
   11.0712   -7.4118    0.0000 C   0  0  0  0  0  0  0  0  0  0  0  0
   11.7857   -6.9994    0.0000 C   0  0  0  0  0  0  0  0  0  0  0  0
   11.7857   -6.1744    0.0000 C   0  0  0  0  0  0  0  0  0  0  0  0
   11.0712   -5.7620    0.0000 C   0  0  0  0  0  0  0  0  0  0  0  0
   10.3566   -6.1744    0.0000 C   0  0  0  0  0  0  0  0  0  0  0  0
    9.6421   -5.7620    0.0000 S   0  0  0  0  0  0  0  0  0  0  0  0
   10.0546   -5.0475    0.0000 O   0  0  0  0  0  0  0  0  0  0  0  0
    9.2296   -6.4766    0.0000 O   0  0  0  0  0  0  0  0  0  0  0  0
    8.9275   -5.3495    0.0000 O   0  0  0  0  0  0  0  0  0  0  0  0
    8.2136   -8.2368    0.0000 C   0  0  0  0  0  0  0  0  0  0  0  0
    8.2136   -7.4118    0.0000 O   0  0  0  0  0  0  0  0  0  0  0  0
    7.4991   -8.6493    0.0000 C   0  0  0  0  0  0  0  0  0  0  0  0
    9.6421   -9.8867    0.0000 S   0  0  0  0  0  0  0  0  0  0  0  0
    9.2296  -10.6013    0.0000 O   0  0  0  0  0  0  0  0  0  0  0  0
   10.0546   -9.1722    0.0000 O   0  0  0  0  0  0  0  0  0  0  0  0
   10.3566  -10.2992    0.0000 O   0  0  0  0  0  0  0  0  0  0  0  0
    5.3555   -9.8867    0.0000 S   0  0  0  0  0  0  0  0  0  0  0  0
    4.9430   -9.1722    0.0000 O   0  0  0  0  0  0  0  0  0  0  0  0
    5.7679  -10.6013    0.0000 O   0  0  0  0  0  0  0  0  0  0  0  0
    4.6415  -10.2992    0.0000 O   0  0  0  0  0  0  0  0  0  0  0  0
    6.0700   -6.1744    0.0000 N   0  0  0  0  0  0  0  0  0  0  0  0
  1  2  1  0  0  0  0
  2  3  1  0  0  0  0
  2 40  2  0  0  0  0
  3  4  2  0  0  0  0
  4  5  1  0  0  0  0
  4  6  1  0  0  0  0
  6  7  2  0  0  0  0
  7  8  1  0  0  0  0
  7 40  1  0  0  0  0
  8  9  1  0  0  0  0
  9 10  1  0  0  0  0
  9 31  2  0  0  0  0
 10 11  2  0  0  0  0
 11 12  1  0  0  0  0
 11 36  1  0  0  0  0
 12 13  2  0  0  0  0
 13 14  1  0  0  0  0
 13 31  1  0  0  0  0
 14 15  2  0  0  0  0
 15 16  1  0  0  0  0
 15 32  1  0  0  0  0
 16 17  1  0  0  0  0
 16 29  2  0  0  0  0
 17 18  2  0  0  0  0
 18 19  1  0  0  0  0
 19 20  1  0  0  0  0
 19 24  2  0  0  0  0
 20 21  2  0  0  0  0
 21 22  1  0  0  0  0
 22 23  2  0  0  0  0
 23 24  1  0  0  0  0
 24 25  1  0  0  0  0
 25 26  1  0  0  0  0
 25 27  2  0  0  0  0
 25 28  2  0  0  0  0
 29 30  1  0  0  0  0
 29 31  1  0  0  0  0
 32 33  1  0  0  0  0
 32 34  2  0  0  0  0
 32 35  2  0  0  0  0
 36 37  1  0  0  0  0
 36 38  2  0  0  0  0
 36 39  2  0  0  0  0
M  END
> <ID>
CHEBI:45457

> <NAME>
5-[(4,6-diamino-1,3,5-triazin-2-yl)amino]-4-hydroxy-3-[(2-sulfophenyl)diazenyl]naphthalene-2,7-disulfonic acid

> <DEFINITION>
A triamino-1,3,5-triazine having a polysubstituted naphthalene group attached to one of the exocyclic nitrogens.

> <STAR>
3

> <SYNONYM>
5-[(4,6-diamino-1,3,5-triazin-2-yl)amino]-4-hydroxy-3-[(E)-(2-sulfophenyl)diazenyl]naphthalene-2,7-disulfonic acid; 5-(4,6-DIAMINO-[1,3,5]TRIAZIN-2-YLAMINO)-4-HYDROXY-3-(2-SULFO-PHENYLAZO)-NAPHTHALENE-2,7-DISULFONIC ACID

> <IUPAC_NAME>
5-[(4,6-diamino-1,3,5-triazin-2-yl)amino]-4-hydroxy-3-[(2-sulfophenyl)diazenyl]naphthalene-2,7-disulfonic acid

> <FORMULA>
C19H16N8O10S3

> <MASS>
612.57300

> <MONOISOTOPIC_MASS>
612.01515

> <CHARGE>
0

> <SMILES>
Nc1nc(N)nc(Nc2cc(cc3cc(c(\N=N\c4ccccc4S(O)(=O)=O)c(O)c23)S(O)(=O)=O)S(O)(=O)=O)n1

> <INCHI>
InChI=1S/C19H16N8O10S3/c20-17-23-18(21)25-19(24-17)22-11-7-9(38(29,30)31)5-8-6-13(40(35,36)37)15(16(28)14(8)11)27-26-10-3-1-2-4-12(10)39(32,33)34/h1-7,28H,(H,29,30,31)(H,32,33,34)(H,35,36,37)(H5,20,21,22,23,24,25)/b27-26+

> <INCHIKEY>
LOCFSBZWHQIILX-CYYJNZCTSA-N

> <PDB_ACCESSION>
1I3U

> <PDBECHEM_ACCESSION>
RR1

> <PUBMED_CITATION>
11469862

$$$$

Marvin  05201014022D          

 23 24  0  0  0  0            999 V2000
    7.1548   -4.1536    0.0000 C   0  0  0  0  0  0  0  0  0  0  0  0
    6.4403   -4.5661    0.0000 C   0  0  0  0  0  0  0  0  0  0  0  0
    6.4403   -5.3911    0.0000 C   0  0  0  0  0  0  0  0  0  0  0  0
    7.1548   -5.8035    0.0000 C   0  0  0  0  0  0  0  0  0  0  0  0
    7.8693   -5.3911    0.0000 C   0  0  0  0  0  0  0  0  0  0  0  0
    7.8693   -4.5661    0.0000 C   0  0  0  0  0  0  0  0  0  0  0  0
    8.5837   -5.8035    0.0000 C   0  0  0  0  0  0  0  0  0  0  0  0
    9.2981   -5.3911    0.0000 C   0  0  0  0  0  0  0  0  0  0  0  0
   10.0127   -5.8035    0.0000 C   0  0  0  0  0  0  0  0  0  0  0  0
   10.7270   -5.3911    0.0000 C   0  0  0  0  0  0  0  0  0  0  0  0
   10.0127   -6.6285    0.0000 C   0  0  0  0  0  0  0  0  0  0  0  0
   10.7270   -7.0410    0.0000 C   0  0  0  0  0  0  0  0  0  0  0  0
   11.4415   -6.6285    0.0000 C   0  0  0  0  0  0  0  0  0  0  0  0
   11.4415   -5.8035    0.0000 C   0  0  0  0  0  0  0  0  0  0  0  0
   12.1560   -7.0410    0.0000 N   0  0  0  0  0  0  0  0  0  0  0  0
   12.8705   -6.6285    0.0000 C   0  0  0  0  0  0  0  0  0  0  0  0
   13.5849   -7.0410    0.0000 C   0  0  0  0  0  0  0  0  0  0  0  0
   12.8705   -5.8035    0.0000 O   0  0  0  0  0  0  0  0  0  0  0  0
   14.2994   -6.6285    0.0000 C   0  0  0  0  0  0  0  0  0  0  0  0
   15.0138   -7.0410    0.0000 C   0  0  0  0  0  0  0  0  0  0  0  0
   15.7282   -6.6285    0.0000 C   0  0  0  0  0  0  0  0  0  0  0  0
   16.4427   -7.0410    0.0000 O   0  0  0  0  0  0  0  0  0  0  0  0
   15.7282   -5.8035    0.0000 O   0  0  0  0  0  0  0  0  0  0  0  0
  1  2  2  0  0  0  0
  2  3  1  0  0  0  0
  3  4  2  0  0  0  0
  4  5  1  0  0  0  0
  5  6  2  0  0  0  0
  1  6  1  0  0  0  0
  5  7  1  0  0  0  0
  7  8  2  0  0  0  0
  8  9  1  0  0  0  0
 10  9  2  0  0  0  0
  9 11  1  0  0  0  0
 11 12  2  0  0  0  0
 12 13  1  0  0  0  0
 13 14  2  0  0  0  0
 10 14  1  0  0  0  0
 13 15  1  0  0  0  0
 15 16  1  0  0  0  0
 16 17  1  0  0  0  0
 16 18  2  0  0  0  0
 17 19  1  0  0  0  0
 19 20  1  0  0  0  0
 20 21  1  0  0  0  0
 21 22  1  0  0  0  0
 21 23  2  0  0  0  0
M  END
> <ID>
CHEBI:45573

> <NAME>
4-(4-styrylphenylcarbamoyl)butyric acid

> <DEFINITION>
A dicarboxylic acid monoamide resulting from the formal condensation of one of the carboxyl groups of glutaric acid with the amino group of 4-aminostilbene.

> <STAR>
3

> <SYNONYM>
5-oxo-5-({4-[(E)-2-phenylvinyl]phenyl}amino)pentanoic acid; 4-(4-STYRYL-PHENYLCARBAMOYL)-BUTYRIC ACID; (E)-4-glutaramidostilbene

> <IUPAC_NAME>
5-oxo-5-({4-[(E)-2-phenylethenyl]phenyl}amino)pentanoic acid

> <FORMULA>
C19H19NO3

> <MASS>
309.35910

> <MONOISOTOPIC_MASS>
309.13649

> <CHARGE>
0

> <SMILES>
OC(=O)CCCC(=O)Nc1ccc(cc1)\C=C\c1ccccc1

> <INCHI>
InChI=1S/C19H19NO3/c21-18(7-4-8-19(22)23)20-17-13-11-16(12-14-17)10-9-15-5-2-1-3-6-15/h1-3,5-6,9-14H,4,7-8H2,(H,20,21)(H,22,23)/b10-9+

> <INCHIKEY>
FTXJWRRYLLRFMG-MDZDMXLPSA-N

> <BEILSTEIN_REGISTRY_NUMBER>
8855821

> <REAXYS_REGISTRY_NUMBER>
8855821

> <DRUGBANK_ACCESSION>
DB08562

> <PDB_ACCESSION>
3CFB

> <PDBECHEM_ACCESSION>
SPB

> <PUBMED_CITATION>
11030644; 11262119; 18309081

$$$$

Marvin  04150817122D          

 22 22  0  0  1  0            999 V2000
    0.0000    0.8250    0.0000 O   0  0  0  0  0  0  0  0  0  0  0  0
   -0.7145    0.4125    0.0000 C   0  0  2  0  0  0  0  0  0  0  0  0
   -0.7145   -0.4125    0.0000 C   0  0  1  0  0  0  0  0  0  0  0  0
    0.0000   -0.8250    0.0000 C   0  0  2  0  0  0  0  0  0  0  0  0
    0.7145   -0.4125    0.0000 C   0  0  0  0  0  0  0  0  0  0  0  0
    1.4290    0.8249    0.0000 C   0  0  0  0  0  0  0  0  0  0  0  0
   -0.0001   -1.6499    0.0000 O   0  0  0  0  0  0  0  0  0  0  0  0
    2.1433    0.4124    0.0000 O   0  0  0  0  0  0  0  0  0  0  0  0
    1.4290    1.6499    0.0000 O   0  0  0  0  0  0  0  0  0  0  0  0
   -1.4289    0.8251    0.0000 C   0  0  1  0  0  0  0  0  0  0  0  0
   -2.1434    0.4126    0.0000 C   0  0  1  0  0  0  0  0  0  0  0  0
   -1.4288    1.6500    0.0000 O   0  0  0  0  0  0  0  0  0  0  0  0
   -2.8578    0.8251    0.0000 C   0  0  0  0  0  0  0  0  0  0  0  0
   -2.1434   -0.4124    0.0000 O   0  0  0  0  0  0  0  0  0  0  0  0
   -3.5722    0.4127    0.0000 O   0  0  0  0  0  0  0  0  0  0  0  0
   -0.7144    1.2375    0.0000 H   0  0  0  0  0  0  0  0  0  0  0  0
    0.7145    0.4125    0.0000 C   0  0  1  0  0  0  0  0  0  0  0  0
    0.7145    1.2375    0.0000 O   0  0  0  0  0  0  0  0  0  0  0  0
   -1.4289   -0.8249    0.0000 N   0  0  0  0  0  0  0  0  0  0  0  0
   -0.7144   -2.0624    0.0000 C   0  0  0  0  0  0  0  0  0  0  0  0
   -1.4289   -1.6499    0.0000 C   0  0  0  0  0  0  0  0  0  0  0  0
   -2.1434   -2.0624    0.0000 O   0  0  0  0  0  0  0  0  0  0  0  0
  2  1  1  0  0  0  0
  2 10  1  0  0  0  0
  2 16  1  1  0  0  0
  2  3  1  0  0  0  0
  3 19  1  1  0  0  0
  3  4  1  0  0  0  0
  4  7  1  6  0  0  0
  4  5  1  0  0  0  0
  1 17  1  0  0  0  0
 17  5  1  0  0  0  0
 17  6  1  0  0  0  0
  6  8  1  0  0  0  0
  6  9  2  0  0  0  0
 10 11  1  0  0  0  0
 10 12  1  1  0  0  0
 11 13  1  0  0  0  0
 11 14  1  6  0  0  0
 13 15  1  0  0  0  0
 17 18  1  1  0  0  0
 19 21  1  0  0  0  0
 21 20  1  0  0  0  0
 21 22  2  0  0  0  0
M  END
> <ID>
CHEBI:45744

> <NAME>
N-acetyl-beta-neuraminic acid

> <DEFINITION>
N-Acetylneuraminic acid with β configuration at the anomeric centre.

> <STAR>
3

> <SYNONYM>
beta-Neu5Ac; 5-N-ACETYL-BETA-D-NEURAMINIC ACID

> <IUPAC_NAME>
5-acetamido-3,5-dideoxy-D-glycero-beta-D-galacto-non-2-ulopyranosonic acid

> <FORMULA>
C11H19NO9

> <MASS>
309.26990

> <MONOISOTOPIC_MASS>
309.10598

> <CHARGE>
0

> <SMILES>
[H][C@]1(O[C@@](O)(C[C@H](O)[C@H]1NC(C)=O)C(O)=O)[C@H](O)[C@H](O)CO

> <INCHI>
InChI=1S/C11H19NO9/c1-4(14)12-7-5(15)2-11(20,10(18)19)21-9(7)8(17)6(16)3-13/h5-9,13,15-17,20H,2-3H2,1H3,(H,12,14)(H,18,19)/t5-,6+,7+,8+,9+,11-/m0/s1

> <INCHIKEY>
SQVRNKJHWKZAKO-PFQGKNLYSA-N

> <BEILSTEIN_REGISTRY_NUMBER>
8134650

> <REAXYS_REGISTRY_NUMBER>
8134650

> <PDBECHEM_ACCESSION>
SLB

> <PUBMED_CITATION>
10768179; 19443021; 25568069; 27373998; 31537530; 6301475

$$$$



22 26  0  0  1  0  0  0  0  0999 V2000
   24.4859  -16.4987    0.0000 C   0  0  2  0  0  0  0  0  0  0  0  0
   24.4801  -15.1930    0.0000 C   0  0  0  0  0  0  0  0  0  0  0  0
   25.6056  -17.1673    0.0000 C   0  0  2  0  0  0  0  0  0  0  0  0
   23.3358  -17.1497    0.0000 C   0  0  1  0  0  0  0  0  0  0  0  0
   25.6056  -15.8313    0.0000 C   0  0  0  0  0  0  0  0  0  0  0  0
   23.3358  -14.5432    0.0000 C   0  0  0  0  0  0  0  0  0  0  0  0
   25.6114  -14.5432    0.0000 C   0  0  0  0  0  0  0  0  0  0  0  0
   26.7499  -16.5104    0.0000 C   0  0  1  0  0  0  0  0  0  0  0  0
   25.5997  -18.4729    0.0000 C   0  0  0  0  0  0  0  0  0  0  0  0
   22.0360  -15.7565    0.0000 O   0  0  0  0  0  0  0  0  0  0  0  0
   23.3298  -18.4554    0.0000 C   0  0  2  0  0  0  0  0  0  0  0  0
   27.8756  -15.8547    0.0000 C   0  0  0  0  0  0  0  0  0  0  0  0
   23.3358  -13.2190    0.0000 C   0  0  0  0  0  0  0  0  0  0  0  0
   26.7557  -15.1989    0.0000 C   0  0  0  0  0  0  0  0  0  0  0  0
   25.6114  -13.2190    0.0000 C   0  0  0  0  0  0  0  0  0  0  0  0
   27.8873  -17.1790    0.0000 N   0  0  3  0  0  0  0  0  0  0  0  0
   24.4625  -19.1169    0.0000 C   0  0  0  0  0  0  0  0  0  0  0  0
   22.1869  -19.1110    0.0000 O   0  0  0  0  0  0  0  0  0  0  0  0
   24.4859  -12.5631    0.0000 C   0  0  0  0  0  0  0  0  0  0  0  0
   22.1985  -12.5631    0.0000 O   0  0  0  0  0  0  0  0  0  0  0  0
   29.1590  -16.8306    0.0000 C   0  0  0  0  0  0  0  0  0  0  0  0
   26.8600  -18.0662    0.0000 H   0  0  0  0  0  0  0  0  0  0  0  0
  1  2  1  0     0  0
  1  3  1  0     0  0
  1  4  1  0     0  0
  1  5  1  1     0  0
  2  6  2  0     0  0
  2  7  1  0     0  0
  3  8  1  0     0  0
  3  9  1  0     0  0
  4 10  1  6     0  0
  4 11  1  0     0  0
  5 12  1  0     0  0
  6 13  1  0     0  0
  7 14  1  0     0  0
  7 15  2  0     0  0
  8 16  1  1     0  0
  9 17  1  0     0  0
 11 18  1  6     0  0
 13 19  2  0     0  0
 13 20  1  0     0  0
 16 21  1  0     0  0
  6 10  1  0     0  0
  8 14  1  0     0  0
 11 17  1  0     0  0
 12 16  1  0     0  0
 15 19  1  0     0  0
  3 22  1  1     0  0
M  END
> <ID>
CHEBI:4575

> <NAME>
Dihydromorphine

> <STAR>
2

> <SYNONYM>
Dihydromorphine

> <FORMULA>
C17H21NO3

> <MASS>
287.354

> <MONOISOTOPIC_MASS>
287.15214

> <CHARGE>
0

> <SMILES>
CN1CC[C@@]23[C@H]4Oc5c2c(C[C@@H]1[C@@H]3CC[C@@H]4O)ccc5O

> <INCHI>
InChI=1S/C17H21NO3/c1-18-7-6-17-10-3-5-13(20)16(17)21-15-12(19)4-2-9(14(15)17)8-11(10)18/h2,4,10-11,13,16,19-20H,3,5-8H2,1H3/t10-,11+,13-,16-,17-/m0/s1

> <INCHIKEY>
IJVCSMSMFSCRME-KBQPJGBKSA-N

> <CAS_REGISTRY_NUMBER>
509-60-4

> <HMDB_ACCESSION>
HMDB0060929

> <KEGG_COMPOUND_ACCESSION>
C11782

$$$$

Marvin  06151014282D          

 36 40  0  0  1  0            999 V2000
    9.3386  -13.4863    0.0000 O   0  0  0  0  0  0  0  0  0  0  0  0
    8.6238  -13.0735    0.0000 C   0  0  1  0  0  0  0  0  0  0  0  0
    7.9090  -13.4862    0.0000 C   0  0  1  0  0  0  0  0  0  0  0  0
    8.6238  -12.2481    0.0000 O   0  0  0  0  0  0  0  0  0  0  0  0
    7.1940  -13.0734    0.0000 C   0  0  2  0  0  0  0  0  0  0  0  0
    7.9090  -11.8353    0.0000 C   0  0  1  0  0  0  0  0  0  0  0  0
    7.1941  -12.2479    0.0000 C   0  0  1  0  0  0  0  0  0  0  0  0
    7.9089  -14.3117    0.0000 O   0  0  0  0  0  0  0  0  0  0  0  0
    6.4792  -13.4861    0.0000 O   0  0  0  0  0  0  0  0  0  0  0  0
    6.4792  -11.8353    0.0000 O   0  0  0  0  0  0  0  0  0  0  0  0
    7.9090  -11.0099    0.0000 C   0  0  0  0  0  0  0  0  0  0  0  0
    7.1942  -10.5972    0.0000 O   0  0  0  0  0  0  0  0  0  0  0  0
    8.5979  -10.6217    0.0000 O   0  0  0  0  0  0  0  0  0  0  0  0
   14.4101  -12.0913    0.0000 C   0  0  0  0  0  0  0  0  0  0  0  0
   12.9110  -13.0739    0.0000 C   0  0  0  0  0  0  0  0  0  0  0  0
   14.4101  -10.7564    0.0000 C   0  0  2  0  0  0  0  0  0  0  0  0
   12.9110  -10.5989    0.0000 C   0  0  0  0  0  0  0  0  0  0  0  0
   14.8950  -11.4239    0.0000 C   0  0  2  0  0  0  0  0  0  0  0  0
   11.4820  -12.2489    0.0000 C   0  0  0  0  0  0  0  0  0  0  0  0
   12.1965  -11.0114    0.0000 C   0  0  0  0  0  0  0  0  0  0  0  0
   12.1965  -13.4864    0.0000 C   0  0  0  0  0  0  0  0  0  0  0  0
   14.6650   -9.9718    0.0000 O   0  0  0  0  0  0  0  0  0  0  0  0
   15.7200  -11.4239    0.0000 O   0  0  0  0  0  0  0  0  0  0  0  0
   11.4820  -13.0739    0.0000 C   0  0  0  0  0  0  0  0  0  0  0  0
   10.7675  -11.8364    0.0000 C   0  0  0  0  0  0  0  0  0  0  0  0
   10.7675  -13.4864    0.0000 C   0  0  0  0  0  0  0  0  0  0  0  0
   10.0531  -12.2489    0.0000 C   0  0  0  0  0  0  0  0  0  0  0  0
   10.0531  -13.0739    0.0000 C   0  0  0  0  0  0  0  0  0  0  0  0
   12.9110  -12.2489    0.0000 C   0  0  2  0  0  0  0  0  0  0  0  0
   12.9110  -11.4239    0.0000 H   0  0  0  0  0  0  0  0  0  0  0  0
   12.1965  -11.8364    0.0000 C   0  0  1  0  0  0  0  0  0  0  0  0
   12.1965  -12.6614    0.0000 H   0  0  0  0  0  0  0  0  0  0  0  0
   13.6254  -11.0114    0.0000 C   0  0  2  0  0  0  0  0  0  0  0  0
   13.6254  -10.1864    0.0000 C   0  0  0  0  0  0  0  0  0  0  0  0
   13.6254  -11.8364    0.0000 C   0  0  1  0  0  0  0  0  0  0  0  0
   13.6254  -12.6614    0.0000 H   0  0  0  0  0  0  0  0  0  0  0  0
  2  3  1  0  0  0  0
  2  4  1  0  0  0  0
  3  5  1  0  0  0  0
  4  6  1  0  0  0  0
  5  7  1  0  0  0  0
  6  7  1  0  0  0  0
  2  1  1  1  0  0  0
  3  8  1  6  0  0  0
  5  9  1  1  0  0  0
  7 10  1  6  0  0  0
  6 11  1  1  0  0  0
 12 11  1  0  0  0  0
 13 11  2  0  0  0  0
 35 29  1  0  0  0  0
 35 33  1  0  0  0  0
 35 14  1  0  0  0  0
 29 31  1  0  0  0  0
 29 15  1  0  0  0  0
 33 16  1  0  0  0  0
 33 17  1  0  0  0  0
 18 14  1  0  0  0  0
 31 19  1  0  0  0  0
 31 20  1  0  0  0  0
 15 21  1  0  0  0  0
 16 22  1  1  0  0  0
 18 23  1  6  0  0  0
 19 24  2  0  0  0  0
 19 25  1  0  0  0  0
 24 26  1  0  0  0  0
 25 27  2  0  0  0  0
 26 28  2  0  0  0  0
 16 18  1  0  0  0  0
 17 20  1  0  0  0  0
 21 24  1  0  0  0  0
 27 28  1  0  0  0  0
 29 30  1  1  0  0  0
 31 32  1  6  0  0  0
 33 34  1  1  0  0  0
 35 36  1  6  0  0  0
 28  1  1  0  0  0  0
M  END
> <ID>
CHEBI:45869

> <NAME>
estriol 3-O-(beta-D-glucuronide)

> <DEFINITION>
A  steroid glucosiduronic acid that is the 3-β-D-glucuronide of estriol; a steroid hormone ligand recognised by the monoclonal antibody 4155.

> <STAR>
3

> <SYNONYM>
Estriol-3-glucuronide; Estriol 3-glucuronide; estra-1,3,5(10)-triene-3,16alpha,17beta-triol 3-D-glucuronide; E13G; 16alpha,17beta-estriol 3-(beta-D-glucuronide)

> <IUPAC_NAME>
(16alpha,17beta)-16,17-dihydroxyestra-1,3,5(10)-trien-3-yl beta-D-glucopyranosiduronic acid

> <FORMULA>
C24H32O9

> <MASS>
464.50550

> <MONOISOTOPIC_MASS>
464.20463

> <CHARGE>
0

> <SMILES>
[H][C@]12CC[C@]3(C)[C@@H](O)[C@H](O)C[C@@]3([H])[C@]1([H])CCc1cc(O[C@@H]3O[C@@H]([C@@H](O)[C@H](O)[C@H]3O)C(O)=O)ccc21

> <INCHI>
InChI=1S/C24H32O9/c1-24-7-6-13-12-5-3-11(32-23-19(28)17(26)18(27)20(33-23)22(30)31)8-10(12)2-4-14(13)15(24)9-16(25)21(24)29/h3,5,8,13-21,23,25-29H,2,4,6-7,9H2,1H3,(H,30,31)/t13-,14-,15+,16-,17+,18+,19-,20+,21+,23-,24+/m1/s1

> <INCHIKEY>
UZKIAJMSMKLBQE-JRSYHJKYSA-N

> <BEILSTEIN_REGISTRY_NUMBER>
5664384

> <CAS_REGISTRY_NUMBER>
2479-91-6

> <REAXYS_REGISTRY_NUMBER>
5664384

> <CHEMIDPLUS>
2479-91-6

> <HMDB_ACCESSION>
HMDB0010335

> <KEGG_COMPOUND_ACCESSION>
C11288

> <LIPID_MAPS_INSTANCE_ACCESSION>
LMST05010017

> <PDB_ACCESSION>
1BFV

> <PDBECHEM_ACCESSION>
STG

> <PUBMED_CITATION>
15537867; 9261086

$$$$

Marvin  06021016592D          

 22 23  0  0  0  0            999 V2000
    7.5136   -6.2814    0.0000 C   0  0  0  0  0  0  0  0  0  0  0  0
    8.2281   -6.6938    0.0000 C   0  0  0  0  0  0  0  0  0  0  0  0
    8.2281   -7.5188    0.0000 O   0  0  0  0  0  0  0  0  0  0  0  0
    8.9421   -6.2814    0.0000 N   0  0  0  0  0  0  0  0  0  0  0  0
    9.6566   -6.6938    0.0000 C   0  0  0  0  0  0  0  0  0  0  0  0
    9.6566   -7.5188    0.0000 C   0  0  0  0  0  0  0  0  0  0  0  0
   10.3711   -7.9313    0.0000 C   0  0  0  0  0  0  0  0  0  0  0  0
   11.0857   -7.5188    0.0000 C   0  0  0  0  0  0  0  0  0  0  0  0
   11.0857   -6.6938    0.0000 C   0  0  0  0  0  0  0  0  0  0  0  0
   11.8003   -6.2814    0.0000 C   0  0  0  0  0  0  0  0  0  0  0  0
   12.5142   -6.6938    0.0000 C   0  0  0  0  0  0  0  0  0  0  0  0
   12.5142   -7.5188    0.0000 C   0  0  0  0  0  0  0  0  0  0  0  0
   11.8003   -7.9313    0.0000 C   0  0  0  0  0  0  0  0  0  0  0  0
   11.8003   -8.7563    0.0000 S   0  0  0  0  0  0  0  0  0  0  0  0
   10.9753   -8.7563    0.0000 O   0  0  0  0  0  0  0  0  0  0  0  0
   12.6252   -8.7563    0.0000 O   0  0  0  0  0  0  0  0  0  0  0  0
   11.8003   -9.5812    0.0000 O   0  0  0  0  0  0  0  0  0  0  0  0
   10.3711   -6.2814    0.0000 C   0  0  0  0  0  0  0  0  0  0  0  0
   10.3711   -5.4564    0.0000 S   0  0  0  0  0  0  0  0  0  0  0  0
   11.1961   -5.4564    0.0000 O   0  0  0  0  0  0  0  0  0  0  0  0
    9.5462   -5.4564    0.0000 O   0  0  0  0  0  0  0  0  0  0  0  0
   10.3711   -4.6314    0.0000 O   0  0  0  0  0  0  0  0  0  0  0  0
  1  2  1  0  0  0  0
  2  3  2  0  0  0  0
  2  4  1  0  0  0  0
  4  5  1  0  0  0  0
  5  6  1  0  0  0  0
  5 18  2  0  0  0  0
  6  7  2  0  0  0  0
  7  8  1  0  0  0  0
  8  9  1  0  0  0  0
  8 13  2  0  0  0  0
  9 10  2  0  0  0  0
  9 18  1  0  0  0  0
 10 11  1  0  0  0  0
 11 12  2  0  0  0  0
 12 13  1  0  0  0  0
 13 14  1  0  0  0  0
 14 15  1  0  0  0  0
 14 16  2  0  0  0  0
 14 17  2  0  0  0  0
 18 19  1  0  0  0  0
 19 20  1  0  0  0  0
 19 21  2  0  0  0  0
 19 22  2  0  0  0  0
M  END
> <ID>
CHEBI:45957

> <NAME>
2-(acetylamino)naphthalene-1,5-disulfonic acid

> <DEFINITION>
A naphthalene-1,5-disulfonic acid with an acetamido group at the 2-position.

> <STAR>
3

> <SYNONYM>
2-ACETYLAMINO-NAPTHALENE-1,5-DISULFONIC ACID; 2-(acetylamino)naphthalene-1,5-disulfonic acid

> <IUPAC_NAME>
2-acetamidonaphthalene-1,5-disulfonic acid

> <FORMULA>
C12H11NO7S2

> <MASS>
345.34800

> <MONOISOTOPIC_MASS>
344.99769

> <CHARGE>
0

> <SMILES>
CC(=O)Nc1ccc2c(cccc2c1S(O)(=O)=O)S(O)(=O)=O

> <INCHI>
InChI=1S/C12H11NO7S2/c1-7(14)13-10-6-5-8-9(12(10)22(18,19)20)3-2-4-11(8)21(15,16)17/h2-6H,1H3,(H,13,14)(H,15,16,17)(H,18,19,20)

> <INCHIKEY>
WGOQGHNONXFNJQ-UHFFFAOYSA-N

> <PDB_ACCESSION>
1C5C

> <PDBECHEM_ACCESSION>
TK4

> <PUBMED_CITATION>
11183784

$$$$
ChEBI
  Marvin  08050814052D          

 18 19  0  0  1  0            999 V2000
   18.7846  -22.9643    0.0000 C   0  0  1  0  0  0  0  0  0  0  0  0
   18.3721  -23.6788    0.0000 O   0  0  0  0  0  0  0  0  0  0  0  0
   19.6096  -22.9643    0.0000 C   0  0  1  0  0  0  0  0  0  0  0  0
   20.0221  -23.6788    0.0000 O   0  0  0  0  0  0  0  0  0  0  0  0
   19.8645  -22.1798    0.0000 C   0  0  1  0  0  0  0  0  0  0  0  0
   18.5297  -22.1798    0.0000 C   0  0  2  0  0  0  0  0  0  0  0  0
   19.1971  -21.6948    0.0000 O   0  0  0  0  0  0  0  0  0  0  0  0
   20.5790  -21.7673    0.0000 N   0  0  0  0  0  0  0  0  0  0  0  0
   20.5790  -20.9422    0.0000 C   0  0  0  0  0  0  0  0  0  0  0  0
   22.0079  -20.9422    0.0000 C   0  0  0  0  0  0  0  0  0  0  0  0
   22.7224  -20.5297    0.0000 O   0  0  0  0  0  0  0  0  0  0  0  0
   17.8152  -21.7673    0.0000 C   0  0  0  0  0  0  0  0  0  0  0  0
   17.1007  -22.1798    0.0000 O   0  0  0  0  0  0  0  0  0  0  0  0
   21.2935  -22.1798    0.0000 C   0  0  0  0  0  0  0  0  0  0  0  0
   21.2935  -23.0048    0.0000 O   0  0  0  0  0  0  0  0  0  0  0  0
   22.0079  -21.7673    0.0000 N   0  0  0  0  0  0  0  0  0  0  0  0
   21.2935  -20.5297    0.0000 C   0  0  0  0  0  0  0  0  0  0  0  0
   21.2935  -19.7047    0.0000 C   0  0  0  0  0  0  0  0  0  0  0  0
  7  6  1  0  0  0  0
  7  5  1  0  0  0  0
  6  1  1  0  0  0  0
  1  3  1  0  0  0  0
  3  5  1  0  0  0  0
  1  2  1  6  0  0  0
  3  4  1  6  0  0  0
  5  8  1  1  0  0  0
  6 12  1  1  0  0  0
  9  8  1  0  0  0  0
  8 14  1  0  0  0  0
 17  9  2  0  0  0  0
 17 10  1  0  0  0  0
 14 16  1  0  0  0  0
 16 10  1  0  0  0  0
 10 11  2  0  0  0  0
 12 13  1  0  0  0  0
 14 15  2  0  0  0  0
 17 18  1  0  0  0  0
M  END
> <ID>
CHEBI:45996

> <NAME>
ribothymidine

> <DEFINITION>
A methyluridine having a single methyl substituent at the 5-position on the uracil ring.

> <STAR>
3

> <SECONDARY_ID>
CHEBI:45995; CHEBI:45975; CHEBI:30821

> <SYNONYM>
Thymine riboside; t; ribosylthymidine; 1-(beta-D-ribofuranosyl)thymine

> <IUPAC_NAME>
5-methyluridine

> <FORMULA>
C10H14N2O6; C10H14N2O6

> <MASS>
258.22804

> <MONOISOTOPIC_MASS>
258.08519

> <CHARGE>
0

> <SMILES>
Cc1cn([C@@H]2O[C@H](CO)[C@@H](O)[C@H]2O)c(=O)[nH]c1=O

> <INCHI>
InChI=1S/C10H14N2O6/c1-4-2-12(10(17)11-8(4)16)9-7(15)6(14)5(3-13)18-9/h2,5-7,9,13-15H,3H2,1H3,(H,11,16,17)/t5-,6-,7-,9-/m1/s1

> <INCHIKEY>
DWRXFEITVBNRMK-JXOAFFINSA-N

> <CAS_REGISTRY_NUMBER>
1463-10-1

> <REAXYS_REGISTRY_NUMBER>
90164

> <CHEMIDPLUS>
1463-10-1

> <ECMDB_ACCESSION>
ECMDB21389

> <HMDB_ACCESSION>
HMDB0000884

> <METACYC_ACCESSION>
CPD-15123

> <WIKIPEDIA_ACCESSION>
5-methyluridine

> <PUBMED_CITATION>
1100617; 22325947; 22806868; 6725946

$$$$

Marvin  06031010052D          

 15 16  0  0  0  0            999 V2000
   13.9055   -4.5305    0.0000 N   0  0  0  0  0  0  0  0  0  0  0  0
   13.1910   -4.1180    0.0000 C   0  0  0  0  0  0  0  0  0  0  0  0
   12.4765   -4.5305    0.0000 C   0  0  0  0  0  0  0  0  0  0  0  0
   11.7619   -4.1180    0.0000 C   0  0  0  0  0  0  0  0  0  0  0  0
   11.7619   -3.2932    0.0000 C   0  0  0  0  0  0  0  0  0  0  0  0
   11.0475   -2.8807    0.0000 C   0  0  0  0  0  0  0  0  0  0  0  0
   11.0475   -2.0558    0.0000 N   0  0  0  0  0  0  0  0  0  0  0  0
   10.3336   -1.6433    0.0000 C   0  0  0  0  0  0  0  0  0  0  0  0
    9.6190   -2.0558    0.0000 N   0  3  0  0  0  0  0  0  0  0  0  0
    8.9045   -1.6433    0.0000 C   0  0  0  0  0  0  0  0  0  0  0  0
    8.9045   -0.8184    0.0000 C   0  0  0  0  0  0  0  0  0  0  0  0
    9.6190   -0.4059    0.0000 C   0  0  0  0  0  0  0  0  0  0  0  0
   10.3336   -0.8184    0.0000 C   0  0  0  0  0  0  0  0  0  0  0  0
   12.4765   -2.8807    0.0000 C   0  0  0  0  0  0  0  0  0  0  0  0
   13.1910   -3.2932    0.0000 C   0  0  0  0  0  0  0  0  0  0  0  0
  1  2  1  0  0  0  0
  2  3  1  0  0  0  0
  2 15  2  0  0  0  0
  3  4  2  0  0  0  0
  4  5  1  0  0  0  0
  5  6  1  0  0  0  0
  5 14  2  0  0  0  0
  6  7  1  0  0  0  0
  7  8  1  0  0  0  0
  8  9  2  0  0  0  0
  8 13  1  0  0  0  0
  9 10  1  0  0  0  0
 10 11  1  0  0  0  0
 11 12  1  0  0  0  0
 12 13  1  0  0  0  0
 14 15  1  0  0  0  0
M  CHG  1   9   1
M  END
> <ID>
CHEBI:46087

> <NAME>
6-[(4-aminobenzyl)amino]-2,3,4,5-tetrahydropyridinium

> <DEFINITION>
A carboxamidinium ion consisting of 2,3,4,5-tetrahydropyridinium having a (4-aminobenzyl)amino group at the 2-position.

> <STAR>
3

> <SYNONYM>
6-[(4-aminobenzyl)amino]-2,3,4,5-tetrahydropyridinium; 2-(4-AMINOBENZYLAMINO)-3,4,5,6-TETRAHYDROPYRIDINIUM

> <IUPAC_NAME>
6-[(4-aminobenzyl)amino]-2,3,4,5-tetrahydropyridinium

> <FORMULA>
C12H18N3

> <MASS>
204.29140

> <MONOISOTOPIC_MASS>
204.14952

> <CHARGE>
1

> <SMILES>
Nc1ccc(CNC2=[NH+]CCCC2)cc1

> <INCHI>
InChI=1S/C12H17N3/c13-11-6-4-10(5-7-11)9-15-12-3-1-2-8-14-12/h4-7H,1-3,8-9,13H2,(H,14,15)/p+1

> <INCHIKEY>
FWTCHDHYLQERRE-UHFFFAOYSA-O

> <PDB_ACCESSION>
1F3D

> <PDBECHEM_ACCESSION>
TPM

> <PUBMED_CITATION>
10963661

$$$$

Marvin  06071015272D          

 23 24  0  0  1  0            999 V2000
   10.4253  -14.6080    0.0000 C   0  0  1  0  0  0  0  0  0  0  0  0
   10.9102  -13.9406    0.0000 C   0  0  1  0  0  0  0  0  0  0  0  0
   10.4256  -13.2735    0.0000 C   0  0  0  0  0  0  0  0  0  0  0  0
   11.0387  -12.7213    0.0000 C   0  0  0  0  0  0  0  0  0  0  0  0
   10.2542  -12.4665    0.0000 C   0  0  0  0  0  0  0  0  0  0  0  0
    9.6408  -13.5282    0.0000 C   0  0  0  0  0  0  0  0  0  0  0  0
    8.9265  -13.1155    0.0000 C   0  0  0  0  0  0  0  0  0  0  0  0
    8.2119  -13.5279    0.0000 C   0  0  0  0  0  0  0  0  0  0  0  0
    7.4974  -13.1152    0.0000 C   0  0  0  0  0  0  0  0  0  0  0  0
    8.2118  -14.3529    0.0000 C   0  0  0  0  0  0  0  0  0  0  0  0
    8.9263  -14.7655    0.0000 C   0  0  0  0  0  0  0  0  0  0  0  0
    9.6408  -14.3531    0.0000 C   0  0  0  0  0  0  0  0  0  0  0  0
    7.4973  -14.7653    0.0000 C   0  0  0  0  0  0  0  0  0  0  0  0
    7.4973  -15.5903    0.0000 O   0  0  0  0  0  0  0  0  0  0  0  0
    6.7830  -14.3527    0.0000 C   0  0  0  0  0  0  0  0  0  0  0  0
    6.0682  -14.7648    0.0000 C   0  0  0  0  0  0  0  0  0  0  0  0
    5.3545  -14.3522    0.0000 C   0  0  0  0  0  0  0  0  0  0  0  0
    5.3548  -13.5272    0.0000 O   0  0  0  0  0  0  0  0  0  0  0  0
    4.6397  -14.7643    0.0000 O   0  0  0  0  0  0  0  0  0  0  0  0
   11.7352  -13.9407    0.0000 C   0  0  0  0  0  0  0  0  0  0  0  0
   10.6802  -15.3926    0.0000 C   0  0  0  0  0  0  0  0  0  0  0  0
   10.1281  -16.0057    0.0000 C   0  0  0  0  0  0  0  0  0  0  0  0
   11.4872  -15.5642    0.0000 C   0  0  0  0  0  0  0  0  0  0  0  0
  1  2  1  0  0  0  0
  1 12  1  0  0  0  0
  2  3  1  0  0  0  0
  3  4  1  0  0  0  0
  3  5  1  0  0  0  0
  3  6  1  0  0  0  0
  6  7  1  0  0  0  0
  6 12  2  0  0  0  0
  7  8  2  0  0  0  0
  8  9  1  0  0  0  0
  8 10  1  0  0  0  0
 10 11  2  0  0  0  0
 10 13  1  0  0  0  0
 11 12  1  0  0  0  0
 13 14  2  0  0  0  0
 13 15  1  0  0  0  0
 15 16  1  0  0  0  0
 16 17  1  0  0  0  0
 17 18  2  0  0  0  0
 17 19  1  0  0  0  0
  2 20  1  1  0  0  0
  1 21  1  6  0  0  0
 21 22  1  0  0  0  0
 21 23  1  0  0  0  0
M  END
> <ID>
CHEBI:46099

> <NAME>
(S,S)-trans-1-isopropyl-2,3,3,5-tetramethyl-6-succinylindane

> <DEFINITION>
A  4-oxo monocarboxylic acid that is a synthetic musk fragrance and hydrophobic hapten with an indane core.

> <STAR>
3

> <SYNONYM>
TRAZEOLIDE; 5-(3-carboxy-1-oxo-1-propyl)-1,1,2,6-tetramethyl-3-isopropylindane; 4-oxo-4-[(2S,3S)-1,1,2,6-tetramethyl-3-propan-2-yl-2,3-dihydroinden-5-yl]butanoic acid; 4-oxo-4-[(2S,3S)-1,1,2,6-tetramethyl-3-(propan-2-yl)-2,3-dihydro-1H-inden-5-yl]butanoic acid

> <IUPAC_NAME>
4-oxo-4-[(2S,3S)-1,1,2,6-tetramethyl-3-(propan-2-yl)-2,3-dihydro-1H-inden-5-yl]butanoic acid

> <FORMULA>
C20H28O3

> <MASS>
316.43450

> <MONOISOTOPIC_MASS>
316.20384

> <CHARGE>
0

> <SMILES>
CC(C)[C@H]1[C@H](C)C(C)(C)c2cc(C)c(cc12)C(=O)CCC(O)=O

> <INCHI>
InChI=1S/C20H28O3/c1-11(2)19-13(4)20(5,6)16-9-12(3)14(10-15(16)19)17(21)7-8-18(22)23/h9-11,13,19H,7-8H2,1-6H3,(H,22,23)/t13-,19-/m0/s1

> <INCHIKEY>
YUTXECPABXNXPU-DJJJIMSYSA-N

> <DRUGBANK_ACCESSION>
DB08647

> <PDB_ACCESSION>
1C12

> <PDBECHEM_ACCESSION>
TRZ

> <PUBMED_CITATION>
10525411

$$$$

Marvin  11020717182D          

 10 10  0  0  1  0            999 V2000
   -0.7145   -0.4125    0.0000 C   0  0  2  0  0  0  0  0  0  0  0  0
   -0.7145    0.4125    0.0000 C   0  0  0  0  0  0  0  0  0  0  0  0
    0.7145    0.4125    0.0000 C   0  0  3  0  0  0  0  0  0  0  0  0
    0.7145   -0.4125    0.0000 C   0  0  2  0  0  0  0  0  0  0  0  0
    0.0000   -0.8250    0.0000 C   0  0  2  0  0  0  0  0  0  0  0  0
    0.0000    0.8250    0.0000 O   0  0  0  0  0  0  0  0  0  0  0  0
    1.4289    0.8250    0.0000 O   0  0  0  0  0  0  0  0  0  0  0  0
    1.4289   -0.8250    0.0000 O   0  0  0  0  0  0  0  0  0  0  0  0
    0.0000   -1.6500    0.0000 O   0  0  0  0  0  0  0  0  0  0  0  0
   -1.4289   -0.8250    0.0000 O   0  0  0  0  0  0  0  0  0  0  0  0
  1 10  1  6  0  0  0
  1  2  1  0  0  0  0
  3  7  1  0  0  0  0
  3  4  1  0  0  0  0
  4  8  1  1  0  0  0
  5  1  1  0  0  0  0
  4  5  1  0  0  0  0
  5  9  1  6  0  0  0
  6  2  1  0  0  0  0
  3  6  1  0  0  0  0
M  END
> <ID>
CHEBI:46994

> <NAME>
D-arabinopyranose

> <DEFINITION>
D-Arabinose in its pyranose form.

> <STAR>
3

> <SYNONYM>
D-arabinose

> <IUPAC_NAME>
D-arabinopyranose

> <FORMULA>
C5H10O5

> <MASS>
150.12990

> <MONOISOTOPIC_MASS>
150.05282

> <CHARGE>
0

> <SMILES>
O[C@@H]1COC(O)[C@@H](O)[C@@H]1O

> <INCHI>
InChI=1S/C5H10O5/c6-2-1-10-5(9)4(8)3(2)7/h2-9H,1H2/t2-,3-,4+,5?/m1/s1

> <INCHIKEY>
SRBFZHDQGSBBOR-ZRMNMSDTSA-N

> <BEILSTEIN_REGISTRY_NUMBER>
2039533

> <CAS_REGISTRY_NUMBER>
10323-20-3

> <REAXYS_REGISTRY_NUMBER>
2039533

> <CHEMIDPLUS>
28697-53-2

> <KEGG_COMPOUND_ACCESSION>
C00216

> <PUBMED_CITATION>
19913595; 24643482; 26791015

$$$$

Marvin  11050717312D          

 10 10  0  0  0  0            999 V2000
   -0.7145    0.4125    0.0000 C   0  0  0  0  0  0  0  0  0  0  0  0
   -0.7145   -0.4125    0.0000 C   0  0  2  0  0  0  0  0  0  0  0  0
    0.0000   -0.8250    0.0000 C   0  0  2  0  0  0  0  0  0  0  0  0
    0.7145   -0.4125    0.0000 C   0  0  2  0  0  0  0  0  0  0  0  0
    0.7145    0.4125    0.0000 C   0  0  3  0  0  0  0  0  0  0  0  0
    0.0000    0.8250    0.0000 O   0  0  0  0  0  0  0  0  0  0  0  0
    0.0000   -1.6500    0.0000 O   0  0  0  0  0  0  0  0  0  0  0  0
    1.4289   -0.8250    0.0000 O   0  0  0  0  0  0  0  0  0  0  0  0
   -1.4289   -0.8250    0.0000 O   0  0  0  0  0  0  0  0  0  0  0  0
    1.4289    0.8250    0.0000 O   0  0  0  0  0  0  0  0  0  0  0  0
  2  1  1  0  0  0  0
  2  9  1  6  0  0  0
  3  2  1  0  0  0  0
  3  7  1  6  0  0  0
  4  3  1  0  0  0  0
  4  8  1  6  0  0  0
  5  4  1  0  0  0  0
  5 10  1  0  0  0  0
  1  6  1  0  0  0  0
  5  6  1  0  0  0  0
M  END
> <ID>
CHEBI:47006

> <NAME>
D-ribopyranose

> <DEFINITION>
A D-ribose and the D-enantiomer of ribopyranose.

> <STAR>
3

> <SYNONYM>
(3R,4R,5R)-tetrahydro-2H-pyran-2,3,4,5-tetrol

> <IUPAC_NAME>
D-ribopyranose

> <FORMULA>
C5H10O5

> <MASS>
150.12990

> <MONOISOTOPIC_MASS>
150.05282

> <CHARGE>
0

> <SMILES>
O[C@@H]1COC(O)[C@H](O)[C@@H]1O

> <INCHI>
InChI=1S/C5H10O5/c6-2-1-10-5(9)4(8)3(2)7/h2-9H,1H2/t2-,3-,4-,5?/m1/s1

> <INCHIKEY>
SRBFZHDQGSBBOR-SOOFDHNKSA-N

> <BEILSTEIN_REGISTRY_NUMBER>
1560983

> <REAXYS_REGISTRY_NUMBER>
1560983

> <PUBMED_CITATION>
24643482; 25108762

$$$$

Marvin  11090715202D          

 33 34  0  0  1  0            999 V2000
   -1.4289    0.8250    0.0000 O   0  0  0  0  0  0  0  0  0  0  0  0
   -2.1434    0.4125    0.0000 C   0  0  1  0  0  0  0  0  0  0  0  0
    0.7145   -0.4125    0.0000 C   0  0  0  0  0  0  0  0  0  0  0  0
    2.1434   -0.4125    0.0000 O   0  0  0  0  0  0  0  0  0  0  0  0
    0.7145    0.4125    0.0000 C   0  0  1  0  0  0  0  0  0  0  0  0
    0.0000    0.8250    0.0000 O   0  0  0  0  0  0  0  0  0  0  0  0
    1.4289    0.8250    0.0000 C   0  0  2  0  0  0  0  0  0  0  0  0
    1.4289   -0.8250    0.0000 C   0  0  2  0  0  0  0  0  0  0  0  0
    2.1434    0.4125    0.0000 C   0  0  1  0  0  0  0  0  0  0  0  0
   -0.7145    0.4125    0.0000 C   0  0  2  0  0  0  0  0  0  0  0  0
   -0.7145   -0.4125    0.0000 C   0  0  0  0  0  0  0  0  0  0  0  0
   -1.4289   -0.8250    0.0000 C   0  0  2  0  0  0  0  0  0  0  0  0
   -2.1434   -0.4125    0.0000 C   0  0  1  0  0  0  0  0  0  0  0  0
    2.8579    0.8248    0.0000 C   0  0  1  0  0  0  0  0  0  0  0  0
    1.4289    1.6499    0.0000 O   0  0  0  0  0  0  0  0  0  0  0  0
    3.5724    0.4123    0.0000 C   0  0  0  0  0  0  0  0  0  0  0  0
    2.8579    1.6498    0.0000 O   0  0  0  0  0  0  0  0  0  0  0  0
   -0.7145    1.2374    0.0000 C   0  0  0  0  0  0  0  0  0  0  0  0
    4.2868    0.8247    0.0000 O   0  0  0  0  0  0  0  0  0  0  0  0
   -1.4289    1.6500    0.0000 O   0  0  0  0  0  0  0  0  0  0  0  0
    0.0000    1.6499    0.0000 O   0  0  0  0  0  0  0  0  0  0  0  0
    1.4288   -1.6501    0.0000 O   0  0  0  0  0  0  0  0  0  0  0  0
    2.8578   -0.8252    0.0000 O   0  0  0  0  0  0  0  0  0  0  0  0
    2.1433   -1.2377    0.0000 C   0  0  0  0  0  0  0  0  0  0  0  0
    2.1432   -2.0627    0.0000 O   0  0  0  0  0  0  0  0  0  0  0  0
    2.1434    1.2373    0.0000 H   0  0  0  0  0  0  0  0  0  0  0  0
   -2.8578    0.8251    0.0000 C   0  0  1  0  0  0  0  0  0  0  0  0
   -1.4290   -1.6500    0.0000 O   0  0  0  0  0  0  0  0  0  0  0  0
   -2.8579   -0.8249    0.0000 O   0  0  0  0  0  0  0  0  0  0  0  0
   -2.1434    1.2375    0.0000 H   0  0  0  0  0  0  0  0  0  0  0  0
   -4.2867    0.8250    0.0000 O   0  0  0  0  0  0  0  0  0  0  0  0
   -3.5722    0.4126    0.0000 C   0  0  0  0  0  0  0  0  0  0  0  0
   -2.8578    1.6501    0.0000 O   0  0  0  0  0  0  0  0  0  0  0  0
  2  1  1  0  0  0  0
 27  2  1  0  0  0  0
  2 30  1  6  0  0  0
  5  3  1  0  0  0  0
  5  6  1  1  0  0  0
  7  5  1  0  0  0  0
  7 15  1  1  0  0  0
  8  4  1  0  0  0  0
  8  3  1  0  0  0  0
  8 22  1  6  0  0  0
  8 24  1  0  0  0  0
  9  7  1  0  0  0  0
  9  4  1  0  0  0  0
  9 14  1  0  0  0  0
  9 26  1  6  0  0  0
 10  1  1  0  0  0  0
 10  6  1  6  0  0  0
 10 18  1  0  0  0  0
 10 11  1  0  0  0  0
 12 11  1  0  0  0  0
 12 28  1  1  0  0  0
 13 12  1  0  0  0  0
  2 13  1  0  0  0  0
 13 29  1  1  0  0  0
 14 16  1  0  0  0  0
 14 17  1  6  0  0  0
 16 19  1  0  0  0  0
 18 20  1  0  0  0  0
 18 21  2  0  0  0  0
 24 23  1  0  0  0  0
 24 25  2  0  0  0  0
 27 33  1  1  0  0  0
 27 32  1  0  0  0  0
 32 31  1  0  0  0  0
M  END
> <ID>
CHEBI:47218

> <NAME>
alpha-Kdo-(2->4)-alpha-Kdo

> <DEFINITION>
A disaccharide consisting of two 3-deoxy-α-D-manno-oct-2-ulopyranonosyl units joined via an α-(2→4)-linkage.

> <STAR>
3

> <SYNONYM>
Kdoalpha2-4Kdoalpha; Kdo2; 3-Dodo; 3-Deoxyoctulosonic acid-(alpha-2-4)-3-deoxyoctulosonic acid; 3-Deoxyoctulosonic acid disaccharide; 3-Deoxy-D-manno-octulosonic acid disaccharide; 3-deoxy-4-O-(3-deoxy-alpha-D-manno-oct-2-ulopyranonosyl)-alpha-D-manno-oct-2-ulopyranosonic acid; (Kdo)2

> <IUPAC_NAME>
3-deoxy-alpha-D-manno-oct-2-ulopyranonosyl-(2->4)-3-deoxy-alpha-D-manno-oct-2-ulopyranosonic acid

> <FORMULA>
C16H26O15

> <MASS>
458.36864

> <MONOISOTOPIC_MASS>
458.12717

> <CHARGE>
0

> <SMILES>
[H][C@@]1(O[C@](O)(C[C@@H](O[C@@]2(C[C@@H](O)[C@@H](O)[C@]([H])(O2)[C@H](O)CO)C(O)=O)[C@H]1O)C(O)=O)[C@H](O)CO

> <INCHI>
InChI=1S/C16H26O15/c17-3-6(20)11-9(22)5(19)1-16(31-11,14(26)27)29-8-2-15(28,13(24)25)30-12(10(8)23)7(21)4-18/h5-12,17-23,28H,1-4H2,(H,24,25)(H,26,27)/t5-,6-,7-,8-,9-,10-,11-,12-,15-,16-/m1/s1

> <INCHIKEY>
SRIXLBAWSGGPTF-NNZUOWEZSA-N

> <CAS_REGISTRY_NUMBER>
94722-74-4

> <CHEMIDPLUS>
94722-74-4

> <KEGG_GLYCAN_ACCESSION>
G00846

> <PUBMED_CITATION>
1372290

$$$$

Marvin  10300913522D          

 17 18  0  0  1  0            999 V2000
   10.7632   -5.8860    0.0000 C   0  0  2  0  0  0  0  0  0  0  0  0
   10.7632   -5.0610    0.0000 N   0  0  0  0  0  0  0  0  0  0  0  0
   10.0958   -6.3710    0.0000 O   0  0  0  0  0  0  0  0  0  0  0  0
   11.4307   -6.3710    0.0000 C   0  0  0  0  0  0  0  0  0  0  0  0
   11.4777   -4.6485    0.0000 C   0  0  0  0  0  0  0  0  0  0  0  0
   10.0488   -4.6485    0.0000 C   0  0  0  0  0  0  0  0  0  0  0  0
   10.3507   -7.1556    0.0000 C   0  0  1  0  0  0  0  0  0  0  0  0
   11.1757   -7.1556    0.0000 C   0  0  1  0  0  0  0  0  0  0  0  0
   11.4777   -3.8235    0.0000 N   0  0  0  0  0  0  0  0  0  0  0  0
   12.1922   -5.0610    0.0000 O   0  0  0  0  0  0  0  0  0  0  0  0
   10.0488   -3.8235    0.0000 C   0  0  0  0  0  0  0  0  0  0  0  0
   11.6607   -7.8230    0.0000 O   0  0  0  0  0  0  0  0  0  0  0  0
   10.7632   -3.4110    0.0000 C   0  0  0  0  0  0  0  0  0  0  0  0
    9.8658   -7.8230    0.0000 C   0  0  0  0  0  0  0  0  0  0  0  0
   10.2014   -8.5767    0.0000 O   0  0  0  0  0  0  0  0  0  0  0  0
   10.7632   -2.5860    0.0000 O   0  0  0  0  0  0  0  0  0  0  0  0
    9.3343   -3.4110    0.0000 Br  0  0  0  0  0  0  0  0  0  0  0  0
  1  2  1  1  0  0  0
  1  3  1  0  0  0  0
  1  4  1  0  0  0  0
  2  5  1  0  0  0  0
  2  6  1  0  0  0  0
  3  7  1  0  0  0  0
  4  8  1  0  0  0  0
  5  9  1  0  0  0  0
  5 10  2  0  0  0  0
  6 11  2  0  0  0  0
  7 14  1  1  0  0  0
  8 12  1  6  0  0  0
  9 13  1  0  0  0  0
 13 16  2  0  0  0  0
  7  8  1  0  0  0  0
 11 13  1  0  0  0  0
 14 15  1  0  0  0  0
 11 17  1  0  0  0  0
M  END
> <ID>
CHEBI:472552

> <NAME>
5-bromo-2'-deoxyuridine

> <DEFINITION>
A pyrimidine 2'-deoxyribonucleoside compound having 5-bromouracil as the nucleobase.

> <STAR>
3

> <SECONDARY_ID>
CHEBI:47713; CHEBI:31310

> <SYNONYM>
Bromouracil deoxyriboside; Bromodeoxyuridine; BrdU; 5-Bromouracil-2-deoxyriboside; 5-Bromouracil deoxyriboside; 5-Bromodesoxyuridine; 5-Bromodeoxyuridine; 5-Bdu

> <IUPAC_NAME>
5-bromo-2'-deoxyuridine

> <INN>
broxuridinum; broxuridine; broxuridina

> <FORMULA>
C9H11BrN2O5

> <MASS>
307.09800

> <MONOISOTOPIC_MASS>
305.98513

> <CHARGE>
0

> <SMILES>
OC[C@H]1O[C@H](C[C@@H]1O)n1cc(Br)c(=O)[nH]c1=O

> <INCHI>
InChI=1S/C9H11BrN2O5/c10-4-2-12(9(16)11-8(4)15)7-1-5(14)6(3-13)17-7/h2,5-7,13-14H,1,3H2,(H,11,15,16)/t5-,6+,7+/m0/s1

> <INCHIKEY>
WOVKYSAHUYNSMH-RRKCRQDMSA-N

> <BEILSTEIN_REGISTRY_NUMBER>
4236087

> <CAS_REGISTRY_NUMBER>
59-14-3

> <CHEMIDPLUS>
59-14-3

> <PDBECHEM_ACCESSION>
U33

> <WIKIPEDIA_ACCESSION>
Bromodeoxyuridine

> <PUBMED_CITATION>
17325220; 17341060; 3950402

$$$$

Marvin  05081313282D          

 21 23  0  0  1  0            999 V2000
   12.6971  -10.0343    0.0000 C   0  0  0  0  0  0  0  0  0  0  0  0
   11.8724  -10.0343    0.0000 N   0  0  0  0  0  0  0  0  0  0  0  0
   11.3877  -10.7019    0.0000 C   0  0  0  0  0  0  0  0  0  0  0  0
   11.6423  -11.4863    0.0000 O   0  0  0  0  0  0  0  0  0  0  0  0
   10.6032  -10.4467    0.0000 C   0  0  1  0  0  0  0  0  0  0  0  0
   10.5996  -11.2856    0.0000 H   0  0  0  0  0  0  0  0  0  0  0  0
   10.6032   -9.6219    0.0000 C   0  0  1  0  0  0  0  0  0  0  0  0
   10.6130   -8.8097    0.0000 H   0  0  0  0  0  0  0  0  0  0  0  0
   11.3877   -9.3667    0.0000 C   0  0  0  0  0  0  0  0  0  0  0  0
   11.6423   -8.5822    0.0000 O   0  0  0  0  0  0  0  0  0  0  0  0
    9.8884   -9.2095    0.0000 C   0  0  1  0  0  0  0  0  0  0  0  0
    9.8884   -8.3842    0.0000 Cl  0  0  0  0  0  0  0  0  0  0  0  0
    9.1738   -9.6219    0.0000 C   0  0  0  0  0  0  0  0  0  0  0  0
    9.1738  -10.4467    0.0000 C   0  0  0  0  0  0  0  0  0  0  0  0
    8.4597  -10.8590    0.0000 Cl  0  0  0  0  0  0  0  0  0  0  0  0
    9.8884  -10.8590    0.0000 C   0  0  1  0  0  0  0  0  0  0  0  0
    9.8884  -11.6844    0.0000 Cl  0  0  0  0  0  0  0  0  0  0  0  0
    9.4120  -10.0343    0.0000 C   0  0  0  0  0  0  0  0  0  0  0  0
    8.6979   -9.6219    0.0000 Cl  0  0  0  0  0  0  0  0  0  0  0  0
    8.6979  -10.4467    0.0000 Cl  0  0  0  0  0  0  0  0  0  0  0  0
    8.4597   -9.2095    0.0000 Cl  0  0  0  0  0  0  0  0  0  0  0  0
  1  2  1  0  0  0  0
  2  3  1  0  0  0  0
  2  9  1  0  0  0  0
  3  4  2  0  0  0  0
  3  5  1  0  0  0  0
  5  6  1  1  0  0  0
  5  7  1  0  0  0  0
  5 16  1  0  0  0  0
  7  8  1  1  0  0  0
  7  9  1  0  0  0  0
  7 11  1  0  0  0  0
  9 10  2  0  0  0  0
 11 12  1  0  0  0  0
 11 13  1  0  0  0  0
 11 18  1  1  0  0  0
 13 14  2  0  0  0  0
 13 21  1  0  0  0  0
 14 15  1  0  0  0  0
 14 16  1  0  0  0  0
 16 17  1  0  0  0  0
 16 18  1  1  0  0  0
 18 19  1  0  0  0  0
 18 20  1  0  0  0  0
M  END
> <ID>
CHEBI:47397

> <NAME>
1,7,8,9,10,10-hexachloro-4-methyl-4-azatricyclo[5.2.1.0(2,6)]dec-8-ene-3,5-dione

> <DEFINITION>
An organic heterotricyclic compound arising from formal [4+2]-cycloaddition of hexachlorocyclopentadiene to N-methylmaleimide.

> <STAR>
3

> <IUPAC_NAME>
(3aR,4S,7R,7aS)-4,5,6,7,8,8-hexachloro-2-methyl-3a,4,7,7a-tetrahydro-1H-4,7-methanoisoindole-1,3(2H)-dione

> <FORMULA>
C10H5Cl6NO2

> <MASS>
383.87000

> <MONOISOTOPIC_MASS>
380.84514

> <CHARGE>
0

> <SMILES>
[H][C@]12C(=O)N(C)C(=O)[C@@]1([H])[C@@]1(Cl)C(Cl)=C(Cl)[C@]2(Cl)C1(Cl)Cl

> <INCHI>
InChI=1S/C10H5Cl6NO2/c1-17-6(18)2-3(7(17)19)9(14)5(12)4(11)8(2,13)10(9,15)16/h2-3H,1H3/t2-,3+,8+,9-

> <INCHIKEY>
DKILHSLDAKXHHE-ASQNABRVSA-N

> <PDB_ACCESSION>
1C1E

> <PDBECHEM_ACCESSION>
ENH

> <PUBMED_CITATION>
10600746

$$$$

Marvin  12050714042D          

 13 13  0  0  0  0            999 V2000
    0.0000    0.8250    0.0000 O   0  0  0  0  0  0  0  0  0  0  0  0
   -0.7145    0.4125    0.0000 C   0  0  1  0  0  0  0  0  0  0  0  0
    0.7145    0.4125    0.0000 C   0  0  3  0  0  0  0  0  0  0  0  0
    0.0000   -0.8250    0.0000 C   0  0  2  0  0  0  0  0  0  0  0  0
    0.7145   -0.4125    0.0000 C   0  0  1  0  0  0  0  0  0  0  0  0
   -0.7145   -0.4125    0.0000 C   0  0  2  0  0  0  0  0  0  0  0  0
    1.4289    0.8250    0.0000 O   0  0  0  0  0  0  0  0  0  0  0  0
    0.0000   -1.6500    0.0000 O   0  0  0  0  0  0  0  0  0  0  0  0
    1.4289   -0.8250    0.0000 O   0  0  0  0  0  0  0  0  0  0  0  0
   -1.4289   -0.8250    0.0000 O   0  0  0  0  0  0  0  0  0  0  0  0
   -2.1434    0.4125    0.0000 O   0  0  0  0  0  0  0  0  0  0  0  0
   -1.4289    0.8250    0.0000 C   0  0  0  0  0  0  0  0  0  0  0  0
   -1.4289    1.6500    0.0000 O   0  0  0  0  0  0  0  0  0  0  0  0
  1  2  1  0  0  0  0
  2 12  1  1  0  0  0
  1  3  1  0  0  0  0
  3  7  1  0  0  0  0
  4  8  1  1  0  0  0
  5  3  1  0  0  0  0
  4  5  1  0  0  0  0
  5  9  1  6  0  0  0
  6  4  1  0  0  0  0
  2  6  1  0  0  0  0
  6 10  1  6  0  0  0
 12 11  1  0  0  0  0
 12 13  2  0  0  0  0
M  END
> <ID>
CHEBI:47952

> <NAME>
D-glucopyranuronic acid

> <DEFINITION>
A D-glucuronic acid in cyclic pyranose form.

> <STAR>
3

> <SYNONYM>
Glucuronic acid; Glucuronate; D-glucuronic acid

> <IUPAC_NAME>
D-glucopyranuronic acid

> <FORMULA>
C6H10O7

> <MASS>
194.13940

> <MONOISOTOPIC_MASS>
194.04265

> <CHARGE>
0

> <SMILES>
OC1O[C@@H]([C@@H](O)[C@H](O)[C@H]1O)C(O)=O

> <INCHI>
InChI=1S/C6H10O7/c7-1-2(8)4(5(10)11)13-6(12)3(1)9/h1-4,6-9,12H,(H,10,11)/t1-,2-,3+,4-,6?/m0/s1

> <INCHIKEY>
AEMOLEFTQBMNLQ-AQKNRBDQSA-N

> <BEILSTEIN_REGISTRY_NUMBER>
1427741

> <CAS_REGISTRY_NUMBER>
6556-12-3

> <GMELIN_REGISTRY_NUMBER>
397418

> <REAXYS_REGISTRY_NUMBER>
1427741

> <CHEMIDPLUS>
528-16-5

> <DRUGBANK_ACCESSION>
DB03156

> <ECMDB_ACCESSION>
ECMDB04073

> <HMDB_ACCESSION>
HMDB0000127

> <KEGG_COMPOUND_ACCESSION>
C00191

> <KNAPSACK_ACCESSION>
C00001123

> <METACYC_ACCESSION>
D-Glucopyranuronate

> <PUBMED_CITATION>
1276; 16658890; 17440709; 19093370; 6814425; 6838587; 7504304; 7540499; 8049386; 8111290

$$$$

Marvin  12110709552D          

 12 12  0  0  1  0            999 V2000
    0.0000   -0.8250    0.0000 C   0  0  1  0  0  0  0  0  0  0  0  0
   -0.7145   -0.4125    0.0000 C   0  0  1  0  0  0  0  0  0  0  0  0
    0.7145    0.4125    0.0000 C   0  0  3  0  0  0  0  0  0  0  0  0
    0.7145   -0.4125    0.0000 C   0  0  2  0  0  0  0  0  0  0  0  0
   -0.7145    0.4125    0.0000 C   0  0  2  0  0  0  0  0  0  0  0  0
    0.0000    0.8250    0.0000 O   0  0  0  0  0  0  0  0  0  0  0  0
   -1.4289    0.8250    0.0000 C   0  0  0  0  0  0  0  0  0  0  0  0
    1.4289    0.8250    0.0000 O   0  0  0  0  0  0  0  0  0  0  0  0
    0.0000   -1.6500    0.0000 O   0  0  0  0  0  0  0  0  0  0  0  0
   -1.4289   -0.8250    0.0000 O   0  0  0  0  0  0  0  0  0  0  0  0
   -2.1434    0.4125    0.0000 O   0  0  0  0  0  0  0  0  0  0  0  0
    1.4289   -0.8250    0.0000 N   0  0  0  0  0  0  0  0  0  0  0  0
  1  9  1  1  0  0  0
  2  1  1  0  0  0  0
  2 10  1  6  0  0  0
  3  8  1  0  0  0  0
  4  3  1  0  0  0  0
  1  4  1  0  0  0  0
  4 12  1  6  0  0  0
  5  2  1  0  0  0  0
  5  7  1  1  0  0  0
  6  5  1  0  0  0  0
  6  3  1  0  0  0  0
 11  7  1  0  0  0  0
M  END
> <ID>
CHEBI:47977

> <NAME>
2-amino-2-deoxy-D-glucopyranose

> <DEFINITION>
A D-glucosamine whose structure comprises D-glucopyranose having an amino substituent at position 2.

> <STAR>
3

> <SECONDARY_ID>
CHEBI:47972; CHEBI:4162

> <SYNONYM>
D-Glucosamine; Chitosamine; 2-Amino-2-deoxy-D-glucose

> <IUPAC_NAME>
2-amino-2-deoxy-D-glucopyranose

> <FORMULA>
C6H13NO5

> <MASS>
179.17116

> <MONOISOTOPIC_MASS>
179.07937

> <CHARGE>
0

> <SMILES>
N[C@H]1C(O)O[C@H](CO)[C@@H](O)[C@@H]1O

> <INCHI>
InChI=1S/C6H13NO5/c7-3-5(10)4(9)2(1-8)12-6(3)11/h2-6,8-11H,1,7H2/t2-,3-,4-,5-,6?/m1/s1

> <INCHIKEY>
MSWZFWKMSRAUBD-IVMDWMLBSA-N

> <BEILSTEIN_REGISTRY_NUMBER>
1423209

> <CAS_REGISTRY_NUMBER>
3416-24-8

> <GMELIN_REGISTRY_NUMBER>
397125

> <REAXYS_REGISTRY_NUMBER>
1423209

> <KEGG_COMPOUND_ACCESSION>
C00329

> <KEGG_DRUG_ACCESSION>
D04334

> <PUBMED_CITATION>
22846255; 59831

$$$$

Marvin  01070816592D          

 13 12  0  0  0  0            999 V2000
    2.8579    0.0635    0.0000 C   0  0  0  0  0  0  0  0  0  0  0  0
   -2.8579    0.0635    0.0000 C   0  0  0  0  0  0  0  0  0  0  0  0
    2.8579    0.8885    0.0000 O   0  0  0  0  0  0  0  0  0  0  0  0
   -2.8579    0.8885    0.0000 O   0  0  0  0  0  0  0  0  0  0  0  0
    3.5724   -0.3490    0.0000 O   0  0  0  0  0  0  0  0  0  0  0  0
   -3.5724   -0.3490    0.0000 O   0  0  0  0  0  0  0  0  0  0  0  0
    2.1434   -0.3490    0.0000 C   0  0  0  0  0  0  0  0  0  0  0  0
   -2.1434   -0.3490    0.0000 C   0  0  0  0  0  0  0  0  0  0  0  0
   -1.4289    0.0635    0.0000 C   0  0  0  0  0  0  0  0  0  0  0  0
    1.4289    0.0635    0.0000 C   0  0  0  0  0  0  0  0  0  0  0  0
   -0.7145   -0.3490    0.0000 C   0  0  0  0  0  0  0  0  0  0  0  0
    0.7145   -0.3490    0.0000 C   0  0  0  0  0  0  0  0  0  0  0  0
    0.0000    0.0635    0.0000 C   0  0  0  0  0  0  0  0  0  0  0  0
  3  1  2  0  0  0  0
  5  1  1  0  0  0  0
  7  1  1  0  0  0  0
  8  2  1  0  0  0  0
  4  2  2  0  0  0  0
  6  2  1  0  0  0  0
 10  7  1  0  0  0  0
  9  8  1  0  0  0  0
 11  9  1  0  0  0  0
 12 10  1  0  0  0  0
 13 11  1  0  0  0  0
 13 12  1  0  0  0  0
M  END
> <ID>
CHEBI:48131

> <NAME>
nonanedioic acid

> <DEFINITION>
An α,ω-dicarboxylic acid that is heptane substituted at positions 1 and 7 by carboxy groups.

> <STAR>
3

> <SECONDARY_ID>
CHEBI:40912; CHEBI:2949

> <SYNONYM>
Nonanedioic acid; Nonandisaeure; n-nonanedioic acid; lepargylic acid; Azelainsaeure; azelaic acid; AZELAIC ACID; Azelaic acid; anchoic acid; acidum azelaicum; acide azelaique; 1,9-nonanedioic acid; 1,7-Heptanedicarboxylic acid; 1,7-dicarboxyheptane

> <IUPAC_NAME>
nonanedioic acid

> <BRAND_NAME>
Skinoren; Finacea; Azelex

> <FORMULA>
C9H16O4

> <MASS>
188.22094

> <MONOISOTOPIC_MASS>
188.10486

> <CHARGE>
0

> <SMILES>
OC(=O)CCCCCCCC(O)=O

> <INCHI>
InChI=1S/C9H16O4/c10-8(11)6-4-2-1-3-5-7-9(12)13/h1-7H2,(H,10,11)(H,12,13)

> <INCHIKEY>
BDJRBEYXGGNYIS-UHFFFAOYSA-N

> <BEILSTEIN_REGISTRY_NUMBER>
1101094

> <CAS_REGISTRY_NUMBER>
123-99-9

> <GMELIN_REGISTRY_NUMBER>
261342

> <REAXYS_REGISTRY_NUMBER>
1101094

> <CHEMIDPLUS>
123-99-9

> <DRUGBANK_ACCESSION>
DB00548

> <HMDB_ACCESSION>
HMDB0000784

> <KEGG_COMPOUND_ACCESSION>
C08261

> <KEGG_DRUG_ACCESSION>
D03034

> <LIPID_MAPS_INSTANCE_ACCESSION>
LMFA01170054

> <METACYC_ACCESSION>
CPD0-1265

> <NIST_CHEMISTRY_WEBBOOK>
123-99-9

> <PDBECHEM_ACCESSION>
AZ1

> <WIKIPEDIA_ACCESSION>
Azelaic_Acid

> <PUBMED_CITATION>
22770225; 24280644; 28600633

$$$$

Marvin  01220823442D          

  8  7  0  0  0  0            999 V2000
    1.0717   -0.2063    0.0000 C   0  0  0  0  0  0  0  0  0  0  0  0
    0.3572    0.2062    0.0000 C   0  0  2  0  0  0  0  0  0  0  0  0
   -0.3572   -0.2063    0.0000 C   0  0  1  0  0  0  0  0  0  0  0  0
   -1.0717    0.2063    0.0000 C   0  0  0  0  0  0  0  0  0  0  0  0
    1.7862    0.2062    0.0000 O   0  0  0  0  0  0  0  0  0  0  0  0
    0.3572    1.0313    0.0000 O   0  0  0  0  0  0  0  0  0  0  0  0
   -0.3572   -1.0313    0.0000 O   0  0  0  0  0  0  0  0  0  0  0  0
   -1.7862   -0.2062    0.0000 O   0  0  0  0  0  0  0  0  0  0  0  0
  2  1  1  0  0  0  0
  1  5  1  0  0  0  0
  3  2  1  0  0  0  0
  2  6  1  6  0  0  0
  3  4  1  0  0  0  0
  3  7  1  6  0  0  0
  4  8  1  0  0  0  0
M  END
> <ID>
CHEBI:48300

> <NAME>
D-threitol

> <DEFINITION>
The D-enantiomer of threitol.

> <STAR>
3

> <SYNONYM>
D-threo-tetritol; D-threitol

> <IUPAC_NAME>
(2R,3R)-butane-1,2,3,4-tetrol

> <FORMULA>
C4H10O4

> <MASS>
122.11980

> <MONOISOTOPIC_MASS>
122.05791

> <CHARGE>
0

> <SMILES>
OC[C@@H](O)[C@H](O)CO

> <INCHI>
InChI=1S/C4H10O4/c5-1-3(7)4(8)2-6/h3-8H,1-2H2/t3-,4-/m1/s1

> <INCHIKEY>
UNXHWFMMPAWVPI-QWWZWVQMSA-N

> <BEILSTEIN_REGISTRY_NUMBER>
5725952

> <CAS_REGISTRY_NUMBER>
2418-52-2

> <GMELIN_REGISTRY_NUMBER>
1782960

> <REAXYS_REGISTRY_NUMBER>
1719752

> <CHEMIDPLUS>
7493-90-5

> <DRUGBANK_ACCESSION>
DB03278

> <HMDB_ACCESSION>
HMDB0004136

> <KEGG_COMPOUND_ACCESSION>
C16884

> <METACYC_ACCESSION>
CPD-12825

> <PDBECHEM_ACCESSION>
DTL

> <WIKIPEDIA_ACCESSION>
Threitol

> <PUBMED_CITATION>
1596913; 16748290; 16901854; 17577890; 17979222; 18863753; 22735334; 24643482; 25108762; 5855592; 6368527; 908147

$$$$

Mrv0541 10241413262D          

 19 20  0  0  0  0            999 V2000
   11.1135   -4.0943    0.0000 C   0  0  0  0  0  0  0  0  0  0  0  0
   11.8280   -4.5068    0.0000 N   0  0  0  0  0  0  0  0  0  0  0  0
   13.2568   -2.8569    0.0000 C   0  0  0  0  0  0  0  0  0  0  0  0
   10.3990   -4.5068    0.0000 N   0  0  0  0  0  0  0  0  0  0  0  0
   12.5424   -4.0943    0.0000 C   0  0  0  0  0  0  0  0  0  0  0  0
   13.9713   -3.2694    0.0000 C   0  0  0  0  0  0  0  0  0  0  0  0
    9.6846   -4.0943    0.0000 C   0  0  0  0  0  0  0  0  0  0  0  0
   13.2568   -4.5068    0.0000 C   0  0  0  0  0  0  0  0  0  0  0  0
    8.2557   -3.2694    0.0000 C   0  0  0  0  0  0  0  0  0  0  0  0
   14.6858   -2.8569    0.0000 Cl  0  0  0  0  0  0  0  0  0  0  0  0
    7.5412   -2.8569    0.0000 Cl  0  0  0  0  0  0  0  0  0  0  0  0
    8.9702   -4.5068    0.0000 C   0  0  0  0  0  0  0  0  0  0  0  0
    8.9702   -2.8569    0.0000 C   0  0  0  0  0  0  0  0  0  0  0  0
   12.5424   -3.2694    0.0000 C   0  0  0  0  0  0  0  0  0  0  0  0
   11.1135   -3.2694    0.0000 O   0  0  0  0  0  0  0  0  0  0  0  0
    9.6846   -3.2694    0.0000 C   0  0  0  0  0  0  0  0  0  0  0  0
    8.2557   -4.0943    0.0000 C   0  0  0  0  0  0  0  0  0  0  0  0
    7.5412   -4.5068    0.0000 Cl  0  0  0  0  0  0  0  0  0  0  0  0
   13.9713   -4.0943    0.0000 C   0  0  0  0  0  0  0  0  0  0  0  0
  2  1  1  0  0  0  0
  4  1  1  0  0  0  0
 15  1  2  0  0  0  0
  5  2  1  0  0  0  0
 14  3  1  0  0  0  0
  6  3  2  0  0  0  0
  5 14  2  0  0  0  0
  7  4  1  0  0  0  0
  8  5  1  0  0  0  0
 19  6  1  0  0  0  0
 10  6  1  0  0  0  0
  8 19  2  0  0  0  0
 16  7  2  0  0  0  0
 12  7  1  0  0  0  0
 17  9  1  0  0  0  0
 11  9  1  0  0  0  0
 13  9  2  0  0  0  0
 13 16  1  0  0  0  0
 17 12  2  0  0  0  0
 17 18  1  0  0  0  0
M  END
> <ID>
CHEBI:48347

> <NAME>
triclocarban

> <DEFINITION>
A member of the class of phenylureas that is urea substituted by a 4-chlorophenyl group and a 3,4-dichlorophenyl group at positions 1 and 3 respectively.

> <STAR>
3

> <SYNONYM>
TCC; N-(4-chlorophenyl)-N'-(3,4-dichlorophenyl)urea; 3,4,4'-trichlorodiphenylurea; 3,4,4'-trichlorocarbanilide; 3,4,4'-trichloro carbanilide; 1-(3',4'-dichlorophenyl)-3-(4'-chlorophenyl)urea

> <IUPAC_NAME>
1-(4-chlorophenyl)-3-(3,4-dichlorophenyl)urea

> <INN>
triclocarbanum; triclocarban

> <BRAND_NAME>
Solubacter; Nobacter; Cutisan

> <FORMULA>
C13H9Cl3N2O

> <MASS>
315.58200

> <MONOISOTOPIC_MASS>
313.97805

> <CHARGE>
0

> <SMILES>
Clc1ccc(NC(=O)Nc2ccc(Cl)c(Cl)c2)cc1

> <INCHI>
InChI=1S/C13H9Cl3N2O/c14-8-1-3-9(4-2-8)17-13(19)18-10-5-6-11(15)12(16)7-10/h1-7H,(H2,17,18,19)

> <INCHIKEY>
ICUTUKXCWQYESQ-UHFFFAOYSA-N

> <BEILSTEIN_REGISTRY_NUMBER>
2814890

> <CAS_REGISTRY_NUMBER>
101-20-2

> <REAXYS_REGISTRY_NUMBER>
2814890

> <CHEMIDPLUS>
101-20-2

> <DRUGBANK_ACCESSION>
DB11155

> <KEGG_DRUG_ACCESSION>
D06223

> <NIST_CHEMISTRY_WEBBOOK>
101-20-2

> <WIKIPEDIA_ACCESSION>
Triclocarban

> <PUBMED_CITATION>
18048496; 24461429; 24464075; 24562054; 30033524

$$$$

Marvin  08121115252D          

 23 25  0  0  0  0            999 V2000
   16.1738  -14.1021    0.0000 C   0  0  0  0  0  0  0  0  0  0  0  0
   15.5060  -14.5864    0.0000 N   0  0  0  0  0  0  0  0  0  0  0  0
   15.9195  -13.3172    0.0000 C   0  0  0  0  0  0  0  0  0  0  0  0
   14.8390  -14.1009    0.0000 N   0  0  0  0  0  0  0  0  0  0  0  0
   15.0945  -13.3165    0.0000 C   0  0  0  0  0  0  0  0  0  0  0  0
   15.5052  -15.4114    0.0000 C   0  0  0  0  0  0  0  0  0  0  0  0
   16.2193  -15.8245    0.0000 C   0  0  0  0  0  0  0  0  0  0  0  0
   14.7903  -15.8233    0.0000 C   0  0  0  0  0  0  0  0  0  0  0  0
   16.2186  -16.6496    0.0000 C   0  0  0  0  0  0  0  0  0  0  0  0
   14.7896  -16.6483    0.0000 C   0  0  0  0  0  0  0  0  0  0  0  0
   15.5037  -17.0614    0.0000 C   0  0  0  0  0  0  0  0  0  0  0  0
   14.0540  -14.3552    0.0000 C   0  0  0  0  0  0  0  0  0  0  0  0
   13.8818  -15.1621    0.0000 C   0  0  0  0  0  0  0  0  0  0  0  0
   13.4414  -13.8027    0.0000 C   0  0  0  0  0  0  0  0  0  0  0  0
   13.0970  -15.4163    0.0000 C   0  0  0  0  0  0  0  0  0  0  0  0
   12.6566  -14.0569    0.0000 C   0  0  0  0  0  0  0  0  0  0  0  0
   12.4844  -14.8637    0.0000 C   0  0  0  0  0  0  0  0  0  0  0  0
   14.6101  -12.6487    0.0000 O   0  0  0  0  0  0  0  0  0  0  0  0
   16.9582  -14.3577    0.0000 O   0  0  0  0  0  0  0  0  0  0  0  0
   16.5029  -12.7338    0.0000 C   0  0  0  0  0  0  0  0  0  0  0  0
   17.3279  -12.7338    0.0000 C   0  0  0  0  0  0  0  0  0  0  0  0
   17.9112  -12.1505    0.0000 C   0  0  0  0  0  0  0  0  0  0  0  0
   18.7362  -12.1505    0.0000 C   0  0  0  0  0  0  0  0  0  0  0  0
  2  1  1  0  0  0  0
  3  1  1  0  0  0  0
  4  2  1  0  0  0  0
  5  3  1  0  0  0  0
  5  4  1  0  0  0  0
  7  6  1  0  0  0  0
  8  6  2  0  0  0  0
  9  7  2  0  0  0  0
 10  8  1  0  0  0  0
 11  9  1  0  0  0  0
 11 10  2  0  0  0  0
  2  6  1  0  0  0  0
 13 12  1  0  0  0  0
 14 12  2  0  0  0  0
 15 13  2  0  0  0  0
 16 14  1  0  0  0  0
 17 15  1  0  0  0  0
 17 16  2  0  0  0  0
  4 12  1  0  0  0  0
  5 18  2  0  0  0  0
  1 19  2  0  0  0  0
  3 20  1  0  0  0  0
 20 21  1  0  0  0  0
 21 22  1  0  0  0  0
 22 23  1  0  0  0  0
M  END
> <ID>
CHEBI:48574

> <NAME>
phenylbutazone

> <DEFINITION>
A member of the class of  pyrazolidines that is 1,2-diphenylpyrazolidine-3,5-dione carrying a butyl group at the 4-position.

> <STAR>
3

> <SECONDARY_ID>
CHEBI:44635; CHEBI:8091

> <SYNONYM>
Phenylbutazone; Phenylbutazon; Phenbutazone; 4-n-Butyl-1,2-diphenyl-3,5-pyrazolidinedione; 4-BUTYL-1,2-DIPHENYL-PYRAZOLIDINE-3,5-DIONE; 3,5-Dioxo-1,2-diphenyl-4-n-butylpyrazolidine

> <IUPAC_NAME>
4-butyl-1,2-diphenylpyrazolidine-3,5-dione

> <INN>
phenylbutazonum; phenylbutazone; phenylbutazone; fenilbutazona

> <FORMULA>
C19H20N2O2

> <MASS>
308.37430

> <MONOISOTOPIC_MASS>
308.15248

> <CHARGE>
0

> <SMILES>
CCCCC1C(=O)N(N(C1=O)c1ccccc1)c1ccccc1

> <INCHI>
InChI=1S/C19H20N2O2/c1-2-3-14-17-18(22)20(15-10-6-4-7-11-15)21(19(17)23)16-12-8-5-9-13-16/h4-13,17H,2-3,14H2,1H3

> <INCHIKEY>
VYMDGNCVAMGZFE-UHFFFAOYSA-N

> <BEILSTEIN_REGISTRY_NUMBER>
290080

> <CAS_REGISTRY_NUMBER>
50-33-9

> <REAXYS_REGISTRY_NUMBER>
290080

> <DRUGBANK_ACCESSION>
DB00812

> <HMDB_ACCESSION>
HMDB0014950

> <KEGG_COMPOUND_ACCESSION>
C07440

> <KEGG_DRUG_ACCESSION>
D00510

> <LINCS_ACCESSION>
LSM-2219

> <PDBECHEM_ACCESSION>
P1Z

> <WIKIPEDIA_ACCESSION>
Phenylbutazone

> <PUBMED_CITATION>
11264893; 12692637; 13010905; 13048452; 13747451; 19614844; 20176071; 21668837; 22082440; 22180948; 22245664; 23369749; 23525812; 25287371; 26090772; 26808199; 3425858; 7655439

$$$$



24 28  0  0  1  0  0  0  0  0999 V2000
   28.5970  -16.3075    0.0000 C   0  0  2  0  0  0  0  0  0  0  0  0
   28.5970  -14.9828    0.0000 C   0  0  0  0  0  0  0  0  0  0  0  0
   29.7821  -17.0045    0.0000 C   0  0  2  0  0  0  0  0  0  0  0  0
   27.4815  -16.9349    0.0000 C   0  0  1  0  0  0  0  0  0  0  0  0
   29.7821  -15.6801    0.0000 C   0  0  0  0  0  0  0  0  0  0  0  0
   27.4815  -14.3554    0.0000 C   0  0  0  0  0  0  0  0  0  0  0  0
   29.7821  -14.3554    0.0000 C   0  0  0  0  0  0  0  0  0  0  0  0
   30.8976  -16.3075    0.0000 C   0  0  1  0  0  0  0  0  0  0  0  0
   29.7821  -18.2594    0.0000 C   0  0  0  0  0  0  0  0  0  0  0  0
   26.1570  -15.6102    0.0000 O   0  0  0  0  0  0  0  0  0  0  0  0
   27.4815  -18.2594    0.0000 C   0  0  2  0  0  0  0  0  0  0  0  0
   32.0129  -15.6801    0.0000 C   0  0  0  0  0  0  0  0  0  0  0  0
   27.4815  -13.0309    0.0000 C   0  0  0  0  0  0  0  0  0  0  0  0
   30.8976  -15.0525    0.0000 C   0  0  0  0  0  0  0  0  0  0  0  0
   29.7821  -13.0309    0.0000 C   0  0  0  0  0  0  0  0  0  0  0  0
   32.0129  -17.0045    0.0000 N   0  0  3  0  0  0  0  0  0  0  0  0
   28.5970  -18.9565    0.0000 C   0  0  0  0  0  0  0  0  0  0  0  0
   26.3662  -18.9565    0.0000 O   0  0  0  0  0  0  0  0  0  0  0  0
   28.6667  -12.4035    0.0000 C   0  0  0  0  0  0  0  0  0  0  0  0
   26.3662  -12.4035    0.0000 O   0  0  0  0  0  0  0  0  0  0  0  0
   25.1810  -13.0309    0.0000 C   0  0  0  0  0  0  0  0  0  0  0  0
   31.0370  -17.9108    0.0000 H   0  0  0  0  0  0  0  0  0  0  0  0
   33.4125  -17.0045    0.0000 C   0  0  0  0  0  0  0  0  0  0  0  0
   24.0106  -12.2963    0.0000 C   0  0  0  0  0  0  0  0  0  0  0  0
  1  2  1  0     0  0
  1  3  1  0     0  0
  1  4  1  0     0  0
  1  5  1  1     0  0
  2  6  2  0     0  0
  2  7  1  0     0  0
  3  8  1  0     0  0
  3  9  1  0     0  0
  4 10  1  6     0  0
  4 11  1  0     0  0
  5 12  1  0     0  0
  6 13  1  0     0  0
  7 14  1  0     0  0
  7 15  2  0     0  0
  8 16  1  1     0  0
  9 17  2  0     0  0
 11 18  1  6     0  0
 13 19  2  0     0  0
 13 20  1  0     0  0
 20 21  1  0     0  0
  6 10  1  0     0  0
  8 14  1  0     0  0
 11 17  1  0     0  0
 12 16  1  0     0  0
 15 19  1  0     0  0
  3 22  1  1     0  0
 16 23  1  0     0  0
 21 24  1  0     0  0
M  END
> <ID>
CHEBI:4902

> <NAME>
Ethylmorphine

> <STAR>
2

> <SYNONYM>
Ethylmorphine; ethomorphine; dionine; codethyline

> <FORMULA>
C19H23NO3

> <SMILES>
CCOc1ccc2C[C@@H]3[C@@H]4C=C[C@H](O)[C@@H]5Oc1c2[C@]45CCN3C

> <INCHI>
InChI=1S/C19H23NO3/c1-3-22-15-7-4-11-10-13-12-5-6-14(21)18-19(12,8-9-20(13)2)16(11)17(15)23-18/h4-7,12-14,18,21H,3,8-10H2,1-2H3/t12-,13+,14-,18-,19-/m0/s1

> <INCHIKEY>
OGDVEMNWJVYAJL-LEPYJNQMSA-N

> <CAS_REGISTRY_NUMBER>
76-58-4

> <HMDB_ACCESSION>
HMDB0015509

> <KEGG_COMPOUND_ACCESSION>
C07537

> <KEGG_DRUG_ACCESSION>
D07929

$$$$

Marvin  04150817272D          

 22 22  0  0  1  0            999 V2000
    0.0000    0.8250    0.0000 O   0  0  0  0  0  0  0  0  0  0  0  0
   -0.7145    0.4125    0.0000 C   0  0  2  0  0  0  0  0  0  0  0  0
   -0.7145   -0.4125    0.0000 C   0  0  1  0  0  0  0  0  0  0  0  0
    0.0000   -0.8250    0.0000 C   0  0  2  0  0  0  0  0  0  0  0  0
    0.7145   -0.4125    0.0000 C   0  0  0  0  0  0  0  0  0  0  0  0
    1.4290    0.8249    0.0000 C   0  0  0  0  0  0  0  0  0  0  0  0
   -0.0001   -1.6499    0.0000 O   0  0  0  0  0  0  0  0  0  0  0  0
    2.1433    0.4124    0.0000 O   0  0  0  0  0  0  0  0  0  0  0  0
    1.4290    1.6499    0.0000 O   0  0  0  0  0  0  0  0  0  0  0  0
   -1.4289    0.8251    0.0000 C   0  0  1  0  0  0  0  0  0  0  0  0
   -2.1434    0.4126    0.0000 C   0  0  1  0  0  0  0  0  0  0  0  0
   -1.4288    1.6500    0.0000 O   0  0  0  0  0  0  0  0  0  0  0  0
   -2.8578    0.8251    0.0000 C   0  0  0  0  0  0  0  0  0  0  0  0
   -2.1434   -0.4124    0.0000 O   0  0  0  0  0  0  0  0  0  0  0  0
   -3.5722    0.4127    0.0000 O   0  0  0  0  0  0  0  0  0  0  0  0
   -0.7144    1.2375    0.0000 H   0  0  0  0  0  0  0  0  0  0  0  0
    0.7145    0.4125    0.0000 C   0  0  2  0  0  0  0  0  0  0  0  0
    0.7145    1.2375    0.0000 O   0  0  0  0  0  0  0  0  0  0  0  0
   -1.4289   -0.8249    0.0000 N   0  0  0  0  0  0  0  0  0  0  0  0
   -0.7144   -2.0624    0.0000 C   0  0  0  0  0  0  0  0  0  0  0  0
   -1.4289   -1.6499    0.0000 C   0  0  0  0  0  0  0  0  0  0  0  0
   -2.1434   -2.0624    0.0000 O   0  0  0  0  0  0  0  0  0  0  0  0
  2  1  1  0  0  0  0
  2 10  1  0  0  0  0
  2 16  1  1  0  0  0
  2  3  1  0  0  0  0
  3 19  1  1  0  0  0
  3  4  1  0  0  0  0
  4  7  1  6  0  0  0
  4  5  1  0  0  0  0
 17  1  1  0  0  0  0
 17  5  1  0  0  0  0
 17  6  1  0  0  0  0
  6  8  1  0  0  0  0
  6  9  2  0  0  0  0
 10 11  1  0  0  0  0
 10 12  1  1  0  0  0
 11 13  1  0  0  0  0
 11 14  1  6  0  0  0
 13 15  1  0  0  0  0
 17 18  1  6  0  0  0
 19 21  1  0  0  0  0
 21 20  1  0  0  0  0
 21 22  2  0  0  0  0
M  END
> <ID>
CHEBI:49026

> <NAME>
N-acetyl-alpha-neuraminic acid

> <DEFINITION>
N-Acetylneuraminic acid with α configuration at the anomeric centre.

> <STAR>
3

> <SECONDARY_ID>
CHEBI:45493; CHEBI:49025

> <SYNONYM>
O-SIALIC ACID; alpha-Neu5Ac

> <IUPAC_NAME>
5-acetamido-3,5-dideoxy-D-glycero-alpha-D-galacto-non-2-ulopyranosonic acid

> <FORMULA>
C11H19NO9

> <MASS>
309.26990

> <MONOISOTOPIC_MASS>
309.10598

> <CHARGE>
0

> <SMILES>
[H][C@]1(O[C@](O)(C[C@H](O)[C@H]1NC(C)=O)C(O)=O)[C@H](O)[C@H](O)CO

> <INCHI>
InChI=1S/C11H19NO9/c1-4(14)12-7-5(15)2-11(20,10(18)19)21-9(7)8(17)6(16)3-13/h5-9,13,15-17,20H,2-3H2,1H3,(H,12,14)(H,18,19)/t5-,6+,7+,8+,9+,11+/m0/s1

> <INCHIKEY>
SQVRNKJHWKZAKO-YRMXFSIDSA-N

> <BEILSTEIN_REGISTRY_NUMBER>
1689968

> <REAXYS_REGISTRY_NUMBER>
1689968

> <DRUGBANK_ACCESSION>
DB03721

> <PDBECHEM_ACCESSION>
SIA

> <PUBMED_CITATION>
19443021; 25568069; 31537530

$$$$

Marvin  02071115252D          

 28 30  0  0  1  0            999 V2000
   10.0969   -5.4000    0.0000 C   0  0  2  0  0  0  0  0  0  0  0  0
   10.0969   -4.5749    0.0000 C   0  0  2  0  0  0  0  0  0  0  0  0
    9.3825   -5.8125    0.0000 O   0  0  0  0  0  0  0  0  0  0  0  0
    8.6680   -5.4000    0.0000 C   0  0  2  0  0  0  0  0  0  0  0  0
    9.3823   -4.1625    0.0000 C   0  0  0  0  0  0  0  0  0  0  0  0
    8.6680   -4.5750    0.0000 C   0  0  1  0  0  0  0  0  0  0  0  0
    7.9536   -5.8125    0.0000 C   0  0  1  0  0  0  0  0  0  0  0  0
    7.2391   -5.4000    0.0000 C   0  0  2  0  0  0  0  0  0  0  0  0
    7.9535   -4.1627    0.0000 O   0  0  0  0  0  0  0  0  0  0  0  0
    7.2391   -4.5752    0.0000 C   0  0  1  0  0  0  0  0  0  0  0  0
    5.8446   -5.6844    0.0000 C   0  0  0  0  0  0  0  0  0  0  0  0
    5.4326   -4.9846    0.0000 C   0  0  0  0  0  0  0  0  0  0  0  0
    6.5933   -5.9135    0.0000 O   0  0  0  0  0  0  0  0  0  0  0  0
    5.7919   -4.2417    0.0000 C   0  0  0  0  0  0  0  0  0  0  0  0
    6.5964   -4.0596    0.0000 C   0  0  0  0  0  0  0  0  0  0  0  0
    7.2185   -6.3544    0.0000 H   0  0  0  0  0  0  0  0  0  0  0  0
    8.7138   -6.2791    0.0000 H   0  0  0  0  0  0  0  0  0  0  0  0
    7.9926   -6.6725    0.0000 O   0  0  0  0  0  0  0  0  0  0  0  0
    7.1750   -3.6775    0.0000 H   0  0  0  0  0  0  0  0  0  0  0  0
    8.6648   -3.6565    0.0000 H   0  0  0  0  0  0  0  0  0  0  0  0
   10.8113   -5.8125    0.0000 C   0  0  0  0  0  0  0  0  0  0  0  0
   11.5258   -5.4000    0.0000 C   0  0  0  0  0  0  0  0  0  0  0  0
   11.5258   -4.5750    0.0000 O   0  0  0  0  0  0  0  0  0  0  0  0
   12.2403   -5.8125    0.0000 O   0  0  0  0  0  0  0  0  0  0  0  0
   10.8113   -4.1624    0.0000 O   0  0  0  0  0  0  0  0  0  0  0  0
   10.8113   -3.3374    0.0000 C   0  0  0  0  0  0  0  0  0  0  0  0
   11.5258   -2.9249    0.0000 O   0  0  0  0  0  0  0  0  0  0  0  0
   11.5258   -2.0999    0.0000 C   0  0  0  0  0  0  0  0  0  0  0  0
  3  1  1  0  0  0  0
  2  1  1  0  0  0  0
  4  3  1  0  0  0  0
  5  2  1  0  0  0  0
  6  5  1  0  0  0  0
  7  4  1  0  0  0  0
  6  4  1  0  0  0  0
  8  7  1  0  0  0  0
  9  6  1  0  0  0  0
 10  9  1  0  0  0  0
 12 11  1  0  0  0  0
 13 11  1  0  0  0  0
 14 12  2  0  0  0  0
  8 13  1  0  0  0  0
 15 14  1  0  0  0  0
 10  8  1  0  0  0  0
 15 10  1  0  0  0  0
  8 16  1  6  0  0  0
  4 17  1  6  0  0  0
  7 18  1  6  0  0  0
 10 19  1  1  0  0  0
  6 20  1  1  0  0  0
  1 21  1  1  0  0  0
 21 22  1  0  0  0  0
 22 23  2  0  0  0  0
 22 24  1  0  0  0  0
  2 25  1  6  0  0  0
 25 26  1  0  0  0  0
 26 27  1  0  0  0  0
 27 28  1  0  0  0  0
M  END
> <ID>
CHEBI:49465

> <NAME>
3,7:6,10:9,14-trianhydro-2,5,11,12,13-pentadeoxy-4-O-(methoxymethyl)-L-arabino-L-allo-tetradec-12-enonic acid

> <DEFINITION>
An organic heterotricyclic compound comprising a decahydropyrano[2',3':5,6]pyrano[3,2-b]oxepin ring system having hydroxy, methoxymethyl and carboxymethyl substituents.

> <STAR>
3

> <IUPAC_NAME>
[(2R,3S,4aR,5aS,10aR,11R,11aS)-11-hydroxy-3-(methoxymethoxy)-2,3,4,4a,5a,6,9,10a,11,11a-decahydropyrano[2',3':5,6]pyrano[3,2-b]oxepin-2-yl]acetic acid

> <FORMULA>
C16H24O8

> <MASS>
344.35700

> <MONOISOTOPIC_MASS>
344.14712

> <CHARGE>
0

> <SMILES>
[H][C@]12CC=CCO[C@]1([H])[C@@H](O)[C@]1([H])O[C@H](CC(O)=O)[C@H](C[C@@]1([H])O2)OCOC

> <INCHI>
InChI=1S/C16H24O8/c1-20-8-22-10-6-12-16(24-11(10)7-13(17)18)14(19)15-9(23-12)4-2-3-5-21-15/h2-3,9-12,14-16,19H,4-8H2,1H3,(H,17,18)/t9-,10-,11+,12+,14+,15-,16+/m0/s1

> <INCHIKEY>
BUTGPEQQPCQQSZ-RQHZCWAZSA-N

> <REAXYS_REGISTRY_NUMBER>
8935474

> <PDBECHEM_ACCESSION>
AB0

> <PUBMED_CITATION>
11454475; 19523973

$$$$

Mrv0541 04151514482D          

 24 26  0  0  0  0            999 V2000
    7.8596   -4.9394    0.0000 C   0  0  0  0  0  0  0  0  0  0  0  0
    7.1451   -5.3519    0.0000 C   0  0  0  0  0  0  0  0  0  0  0  0
    6.4305   -4.1145    0.0000 C   0  0  0  0  0  0  0  0  0  0  0  0
    7.1450   -3.7019    0.0000 C   0  0  0  0  0  0  0  0  0  0  0  0
    6.4305   -4.9394    0.0000 N   0  0  0  0  0  0  0  0  0  0  0  0
    5.7161   -5.3518    0.0000 C   0  0  0  0  0  0  0  0  0  0  0  0
    7.8596   -4.1145    0.0000 N   0  0  0  0  0  0  0  0  0  0  0  0
    8.5739   -3.7020    0.0000 C   0  0  0  0  0  0  0  0  0  0  0  0
    9.2884   -4.1145    0.0000 C   0  0  0  0  0  0  0  0  0  0  0  0
    9.2884   -2.4644    0.0000 C   0  0  0  0  0  0  0  0  0  0  0  0
   10.0029   -3.7020    0.0000 C   0  0  0  0  0  0  0  0  0  0  0  0
   10.0028   -2.8769    0.0000 C   0  0  0  0  0  0  0  0  0  0  0  0
   11.4318   -3.7019    0.0000 C   0  0  0  0  0  0  0  0  0  0  0  0
   10.7173   -4.1145    0.0000 N   0  0  0  0  0  0  0  0  0  0  0  0
   10.7173   -4.9394    0.0000 C   0  0  0  0  0  0  0  0  0  0  0  0
   11.4318   -5.3519    0.0000 C   0  0  0  0  0  0  0  0  0  0  0  0
   11.4318   -2.8770    0.0000 C   0  0  0  0  0  0  0  0  0  0  0  0
   12.1461   -1.6394    0.0000 O   0  0  0  0  0  0  0  0  0  0  0  0
   12.1461   -2.4644    0.0000 C   0  0  0  0  0  0  0  0  0  0  0  0
   12.8606   -2.8769    0.0000 O   0  0  0  0  0  0  0  0  0  0  0  0
   10.7173   -2.4645    0.0000 C   0  0  0  0  0  0  0  0  0  0  0  0
   10.7173   -1.6395    0.0000 O   0  0  0  0  0  0  0  0  0  0  0  0
    8.5738   -2.8769    0.0000 C   0  0  0  0  0  0  0  0  0  0  0  0
    7.8594   -2.4645    0.0000 F   0  0  0  0  0  0  0  0  0  0  0  0
  1  2  1  0  0  0  0
  1  7  1  0  0  0  0
  2  5  1  0  0  0  0
  5  3  1  0  0  0  0
  3  4  1  0  0  0  0
  4  7  1  0  0  0  0
  5  6  1  0  0  0  0
  7  8  1  0  0  0  0
  9  8  2  0  0  0  0
  8 23  1  0  0  0  0
 11  9  1  0  0  0  0
 23 10  2  0  0  0  0
 10 12  1  0  0  0  0
 14 11  1  0  0  0  0
 11 12  2  0  0  0  0
 12 21  1  0  0  0  0
 13 14  1  0  0  0  0
 13 17  2  0  0  0  0
 21 17  1  0  0  0  0
 14 15  1  0  0  0  0
 15 16  1  0  0  0  0
 17 19  1  0  0  0  0
 19 18  2  0  0  0  0
 19 20  1  0  0  0  0
 21 22  2  0  0  0  0
 23 24  1  0  0  0  0
M  END
> <ID>
CHEBI:50199

> <NAME>
pefloxacin

> <DEFINITION>
A quinolone that is 4-oxo-1,4-dihydroquinoline which is substituted at positions 1, 3, 6 and 7 by ethyl, carboxy, fluorine, and 4-methylpiperazin-1-yl groups, respectively.

> <STAR>
3

> <SYNONYM>
PFLX; perfloxacin; Pefloxacine

> <IUPAC_NAME>
1-ethyl-6-fluoro-7-(4-methylpiperazin-1-yl)-4-oxo-1,4-dihydroquinoline-3-carboxylic acid

> <INN>
pefloxacinum; pefloxacino; pefloxacin

> <BRAND_NAME>
Labocton

> <FORMULA>
C17H20FN3O3

> <MASS>
333.35740

> <MONOISOTOPIC_MASS>
333.14887

> <CHARGE>
0

> <SMILES>
CCn1cc(C(O)=O)c(=O)c2cc(F)c(cc12)N1CCN(C)CC1

> <INCHI>
InChI=1S/C17H20FN3O3/c1-3-20-10-12(17(23)24)16(22)11-8-13(18)15(9-14(11)20)21-6-4-19(2)5-7-21/h8-10H,3-7H2,1-2H3,(H,23,24)

> <INCHIKEY>
FHFYDNQZQSQIAI-UHFFFAOYSA-N

> <BEILSTEIN_REGISTRY_NUMBER>
567618

> <CAS_REGISTRY_NUMBER>
70458-92-3

> <REAXYS_REGISTRY_NUMBER>
567618

> <CHEMIDPLUS>
70458-92-3

> <DRUGBANK_ACCESSION>
DB00487

> <HMDB_ACCESSION>
HMDB0014630

> <KEGG_DRUG_ACCESSION>
D02306

> <LINCS_ACCESSION>
LSM-5653

> <WIKIPEDIA_ACCESSION>
Pefloxacin

> <PUBMED_CITATION>
25879817; 26292292; 26963935; 7622257; 8713436

$$$$

Marvin  05171110112D          

 15 15  0  0  1  0            999 V2000
   -3.7417    1.2167    0.0000 C   0  0  2  0  0  0  0  0  0  0  0  0
   -3.7417    0.3917    0.0000 C   0  0  2  0  0  0  0  0  0  0  0  0
   -3.0296   -0.0167    0.0000 C   0  0  1  0  0  0  0  0  0  0  0  0
   -2.3176    0.3917    0.0000 C   0  0  2  0  0  0  0  0  0  0  0  0
   -2.3176    1.2167    0.0000 C   0  0  0  0  0  0  0  0  0  0  0  0
   -3.0296    1.6333    0.0000 O   0  0  0  0  0  0  0  0  0  0  0  0
   -4.4573    1.6271    0.0000 C   0  0  0  0  0  0  0  0  0  0  0  0
   -4.4598    2.4521    0.0000 O   0  0  0  0  0  0  0  0  0  0  0  0
   -3.0296   -0.8417    0.0000 O   0  0  0  0  0  0  0  0  0  0  0  0
   -1.6020    1.6271    0.0000 O   0  0  0  0  0  0  0  0  0  0  0  0
   -4.4555   -0.0219    0.0000 O   0  0  0  0  0  0  0  0  0  0  0  0
   -1.6038   -0.0219    0.0000 N   0  0  0  0  0  0  0  0  0  0  0  0
   -1.6050   -0.8469    0.0000 C   0  0  0  0  0  0  0  0  0  0  0  0
   -0.8911   -1.2604    0.0000 C   0  0  0  0  0  0  0  0  0  0  0  0
   -2.3200   -1.2583    0.0000 O   0  0  0  0  0  0  0  0  0  0  0  0
  1  2  1  0  0  0  0
  7  8  1  0  0  0  0
  1  6  1  0  0  0  0
  3  9  1  1  0  0  0
  2  3  1  0  0  0  0
  5 10  1  0  0  0  0
  3  4  1  0  0  0  0
  2 11  1  6  0  0  0
  4  5  1  0  0  0  0
  4 12  1  6  0  0  0
  5  6  1  0  0  0  0
 12 13  1  0  0  0  0
 13 14  1  0  0  0  0
  1  7  1  1  0  0  0
 13 15  2  0  0  0  0
M  END
> <ID>
CHEBI:506227

> <NAME>
N-acetyl-D-glucosamine

> <DEFINITION>
The D isomer of N-acetylglucosamine.

> <STAR>
3

> <SYNONYM>
N-Acetylchitosamine; N-Acetylchitosamine; N-acetyl-D-glucosamine; N-Acetyl-D-glucosamine; GlcNAc; GlcNAc; 2-Acetamido-2-deoxy-D-glucose; 2-Acetamido-2-deoxy-D-glucose

> <IUPAC_NAME>
2-acetamido-2-deoxy-D-glucopyranose

> <FORMULA>
C8H15NO6

> <MASS>
221.20780

> <MONOISOTOPIC_MASS>
221.08994

> <CHARGE>
0

> <SMILES>
CC(=O)N[C@H]1C(O)O[C@H](CO)[C@@H](O)[C@@H]1O

> <INCHI>
InChI=1S/C8H15NO6/c1-3(11)9-5-7(13)6(12)4(2-10)15-8(5)14/h4-8,10,12-14H,2H2,1H3,(H,9,11)/t4-,5-,6-,7-,8?/m1/s1

> <INCHIKEY>
OVRNDRQMDRJTHS-RTRLPJTCSA-N

> <BEILSTEIN_REGISTRY_NUMBER>
1913592

> <CAS_REGISTRY_NUMBER>
7512-17-6

> <DRUGBANK_ACCESSION>
DB00141

> <KEGG_COMPOUND_ACCESSION>
C00140

> <PDBECHEM_ACCESSION>
NAG

> <PUBMED_CITATION>
11950472; 21487204; 6174502; 7688662

$$$$

Marvin  09220811482D          

 29 30  0  0  0  0            999 V2000
    0.0000    0.0000    0.0000 O   0  0  0  0  0  0  0  0  0  0  0  0
   -0.7144    0.4125    0.0000 C   0  0  1  0  0  0  0  0  0  0  0  0
   -1.4289    0.0000    0.0000 C   0  0  1  0  0  0  0  0  0  0  0  0
   -0.7144    1.2375    0.0000 O   0  0  0  0  0  0  0  0  0  0  0  0
   -2.1434    0.4125    0.0000 C   0  0  2  0  0  0  0  0  0  0  0  0
   -1.4289   -0.8250    0.0000 N   0  0  0  0  0  0  0  0  0  0  0  0
    0.7145    0.4125    0.0000 C   0  0  2  0  0  0  0  0  0  0  0  0
   -1.4289    1.6500    0.0000 C   0  0  1  0  0  0  0  0  0  0  0  0
   -2.1434    1.2375    0.0000 C   0  0  1  0  0  0  0  0  0  0  0  0
   -2.8578    0.0000    0.0000 O   0  0  0  0  0  0  0  0  0  0  0  0
   -0.7144   -1.2375    0.0000 C   0  0  0  0  0  0  0  0  0  0  0  0
    0.7145    1.2375    0.0000 C   0  0  2  0  0  0  0  0  0  0  0  0
    1.4290    0.0000    0.0000 C   0  0  1  0  0  0  0  0  0  0  0  0
   -1.4289    2.4750    0.0000 C   0  0  0  0  0  0  0  0  0  0  0  0
   -2.8578    1.6500    0.0000 O   0  0  0  0  0  0  0  0  0  0  0  0
    0.0000   -0.8250    0.0000 C   0  0  0  0  0  0  0  0  0  0  0  0
   -0.7144   -2.0625    0.0000 O   0  0  0  0  0  0  0  0  0  0  0  0
    1.4290    1.6500    0.0000 O   0  0  0  0  0  0  0  0  0  0  0  0
    0.0000    1.6500    0.0000 C   0  0  0  0  0  0  0  0  0  0  0  0
    2.1434    0.4125    0.0000 C   0  0  2  0  0  0  0  0  0  0  0  0
    1.4290   -0.8250    0.0000 O   0  0  0  0  0  0  0  0  0  0  0  0
   -2.1434    2.8875    0.0000 O   0  0  0  0  0  0  0  0  0  0  0  0
    2.1434    1.2375    0.0000 C   0  0  2  0  0  0  0  0  0  0  0  0
    0.0000    2.4750    0.0000 O   0  0  0  0  0  0  0  0  0  0  0  0
    2.8579    0.0000    0.0000 N   0  0  0  0  0  0  0  0  0  0  0  0
    2.8579    1.6500    0.0000 O   0  0  0  0  0  0  0  0  0  0  0  0
    3.5724    0.4125    0.0000 C   0  0  0  0  0  0  0  0  0  0  0  0
    3.5724    1.2375    0.0000 O   0  0  0  0  0  0  0  0  0  0  0  0
    4.2869    0.0000    0.0000 C   0  0  0  0  0  0  0  0  0  0  0  0
  2  1  1  1  0  0  0
  7  1  1  6  0  0  0
  2  3  1  0  0  0  0
  2  4  1  0  0  0  0
  3  5  1  0  0  0  0
  3  6  1  6  0  0  0
  4  8  1  0  0  0  0
  5  9  1  0  0  0  0
  5 10  1  1  0  0  0
  6 11  1  0  0  0  0
  7 12  1  0  0  0  0
  7 13  1  0  0  0  0
  8 14  1  1  0  0  0
  9 15  1  6  0  0  0
 11 16  1  0  0  0  0
 11 17  2  0  0  0  0
 12 18  1  0  0  0  0
 12 19  1  1  0  0  0
 13 20  1  0  0  0  0
 13 21  1  1  0  0  0
 14 22  1  0  0  0  0
 18 23  1  0  0  0  0
 19 24  1  0  0  0  0
 20 25  1  6  0  0  0
 23 26  1  1  0  0  0
 25 27  1  0  0  0  0
 27 28  2  0  0  0  0
 27 29  1  0  0  0  0
  8  9  1  0  0  0  0
 20 23  1  0  0  0  0
M  END
> <ID>
CHEBI:50670

> <NAME>
N-acetyl-beta-D-glucosaminyl-(1->4)-N-acetyl-beta-D-glucosamine

> <DEFINITION>
An N,N'-diacetylchitobiose having β-configuration at the reducing end anomeric centre.

> <STAR>
3

> <SECONDARY_ID>
CHEBI:41365; CHEBI:50669

> <SYNONYM>
N-acetyl-beta-D-glucosaminyl-(1->4)-N-acetyl-beta-D-glucosamine; N,N'-diacetylchitobiose; GlcNAcbeta1-4GlcNAcbeta; GlcNAcb1-4GlcNAcb; DI(N-ACETYL-D-GLUCOSAMINE); betaGlcNAc(1->4)betaGlcNAc; beta-D-GlcpNAc-(1->4)-beta-D-GlcpNAc; beta-D-GlcNAc-(1->4)-beta-D-GlcNAc

> <IUPAC_NAME>
2-acetamido-4-O-(2-acetamido-2-deoxy-beta-D-glucopyranosyl)-2-deoxy-beta-D-glucopyranose; 2-acetamido-2-deoxy-beta-D-glucopyranosyl-(1->4)-2-acetamido-2-deoxy-beta-D-glucopyranose

> <FORMULA>
C16H28N2O11

> <MASS>
424.40040

> <MONOISOTOPIC_MASS>
424.16931

> <CHARGE>
0

> <SMILES>
CC(=O)N[C@H]1[C@H](O)O[C@H](CO)[C@@H](O[C@@H]2O[C@H](CO)[C@@H](O)[C@H](O)[C@H]2NC(C)=O)[C@@H]1O

> <INCHI>
InChI=1S/C16H28N2O11/c1-5(21)17-9-13(25)14(8(4-20)27-15(9)26)29-16-10(18-6(2)22)12(24)11(23)7(3-19)28-16/h7-16,19-20,23-26H,3-4H2,1-2H3,(H,17,21)(H,18,22)/t7-,8-,9-,10-,11-,12-,13-,14-,15-,16+/m1/s1

> <INCHIKEY>
CDOJPCSDOXYJJF-KSKNGZLJSA-N

> <BEILSTEIN_REGISTRY_NUMBER>
1443242

> <REAXYS_REGISTRY_NUMBER>
1443242

> <DRUGBANK_ACCESSION>
DB03013

> <PDBECHEM_ACCESSION>
CBS

> <PUBMED_CITATION>
12617608; 18083153; 19059777; 19443021; 20045674; 31537530; 7521740

$$$$

Marvin  03081013092D          

 32 36  0  0  1  0            999 V2000
    5.6375   -6.0958    0.0000 C   0  0  0  0  0  0  0  0  0  0  0  0
    5.6375   -6.9208    0.0000 C   0  0  1  0  0  0  0  0  0  0  0  0
    6.3495   -7.3291    0.0000 C   0  0  0  0  0  0  0  0  0  0  0  0
    6.3495   -5.6791    0.0000 C   0  0  0  0  0  0  0  0  0  0  0  0
    7.0615   -6.0958    0.0000 C   0  0  1  0  0  0  0  0  0  0  0  0
    7.0580   -6.9208    0.0000 C   0  0  2  0  0  0  0  0  0  0  0  0
    7.7668   -7.3340    0.0000 C   0  0  0  0  0  0  0  0  0  0  0  0
    8.4836   -6.9268    0.0000 C   0  0  0  0  0  0  0  0  0  0  0  0
    7.7738   -5.6840    0.0000 C   0  0  2  0  0  0  0  0  0  0  0  0
    8.4871   -6.1067    0.0000 C   0  0  2  0  0  0  0  0  0  0  0  0
    8.5041   -4.4514    0.0000 C   0  0  0  0  0  0  0  0  0  0  0  0
    7.7792   -4.8572    0.0000 C   0  0  0  0  0  0  0  0  0  0  0  0
    9.2175   -4.8741    0.0000 C   0  0  1  0  0  0  0  0  0  0  0  0
    9.2040   -5.7006    0.0000 C   0  0  2  0  0  0  0  0  0  0  0  0
    9.9860   -5.9688    0.0000 C   0  0  0  0  0  0  0  0  0  0  0  0
   10.4827   -5.3080    0.0000 C   0  0  0  0  0  0  0  0  0  0  0  0
   10.0077   -4.6315    0.0000 C   0  0  2  0  0  0  0  0  0  0  0  0
    7.0541   -5.2708    0.0000 C   0  0  0  0  0  0  0  0  0  0  0  0
    9.2125   -4.0458    0.0000 C   0  0  0  0  0  0  0  0  0  0  0  0
   10.0077   -3.8065    0.0000 C   0  0  0  0  0  0  0  0  0  0  0  0
   10.7261   -3.3923    0.0000 C   0  0  0  0  0  0  0  0  0  0  0  0
   10.7261   -2.5709    0.0000 C   0  0  0  0  0  0  0  0  0  0  0  0
   10.0144   -2.1617    0.0000 C   0  0  0  0  0  0  0  0  0  0  0  0
    9.2975   -2.5700    0.0000 O   0  0  0  0  0  0  0  0  0  0  0  0
    9.2955   -3.3967    0.0000 C   0  0  0  0  0  0  0  0  0  0  0  0
   10.0162   -1.3367    0.0000 O   0  0  0  0  0  0  0  0  0  0  0  0
    4.9236   -7.3343    0.0000 O   0  0  0  0  0  0  0  0  0  0  0  0
    9.1958   -6.5250    0.0000 O   0  0  0  0  0  0  0  0  0  0  0  0
    8.4792   -5.2833    0.0000 H   0  0  0  0  0  0  0  0  0  0  0  0
    7.0500   -7.7375    0.0000 H   0  0  0  0  0  0  0  0  0  0  0  0
    7.7667   -6.5042    0.0000 H   0  0  0  0  0  0  0  0  0  0  0  0
   10.7222   -4.2190    0.0000 H   0  0  0  0  0  0  0  0  0  0  0  0
  1  4  1  0  0  0  0
  2  3  1  0  0  0  0
  5  9  1  0  0  0  0
  6  7  1  0  0  0  0
 14 15  1  0  0  0  0
 15 16  1  0  0  0  0
 16 17  1  0  0  0  0
 17 13  1  0  0  0  0
  7  8  1  0  0  0  0
  5 18  1  1  0  0  0
  8 10  1  0  0  0  0
 13 19  1  1  0  0  0
  9 10  1  0  0  0  0
 20 21  1  0  0  0  0
  3  6  1  0  0  0  0
  5  4  1  0  0  0  0
  5  6  1  0  0  0  0
  9 12  1  0  0  0  0
 20 25  2  0  0  0  0
 21 22  2  0  0  0  0
 22 23  1  0  0  0  0
 23 24  1  0  0  0  0
 24 25  1  0  0  0  0
 10 14  1  0  0  0  0
 23 26  2  0  0  0  0
 13 11  1  0  0  0  0
  2 27  1  1  0  0  0
 11 12  1  0  0  0  0
 14 28  1  1  0  0  0
 10 29  1  1  0  0  0
 13 14  1  0  0  0  0
  6 30  1  1  0  0  0
  1  2  1  0  0  0  0
  9 31  1  6  0  0  0
 17 20  1  0  0  0  0
 17 32  1  6  0  0  0
M  END
> <ID>
CHEBI:517248

> <NAME>
bufalin

> <DEFINITION>
A 14β-hydroxy steroid that is bufan-20,22-dienolide having hydroxy substituents at the 5β- and 14β-positions. It has been isolated from the skin of the toad Bufo bufo.

> <STAR>
3

> <SYNONYM>
3beta,14beta-dihydroxy-5beta-bufa-20,22-dienolide; 3-beta,14-Dihydroxy-5-beta-bufa-20,22-dienolide; 3,14-Dihydroxy-bufa-20,22-dienolide

> <IUPAC_NAME>
(3beta,5beta)-3,14-dihydroxybufa-20,22-dienolide

> <FORMULA>
C24H34O4

> <MASS>
386.52440

> <MONOISOTOPIC_MASS>
386.24571

> <CHARGE>
0

> <SMILES>
[H][C@]12CC[C@]3([H])[C@]([H])(CC[C@]4(C)[C@]([H])(CC[C@]34O)c3ccc(=O)oc3)[C@@]1(C)CC[C@H](O)C2

> <INCHI>
InChI=1S/C24H34O4/c1-22-10-7-17(25)13-16(22)4-5-20-19(22)8-11-23(2)18(9-12-24(20,23)27)15-3-6-21(26)28-14-15/h3,6,14,16-20,25,27H,4-5,7-13H2,1-2H3/t16-,17+,18-,19+,20-,22+,23-,24+/m1/s1

> <INCHIKEY>
QEEBRPGZBVVINN-BMPKRDENSA-N

> <BEILSTEIN_REGISTRY_NUMBER>
96550

> <CAS_REGISTRY_NUMBER>
465-21-4

> <REAXYS_REGISTRY_NUMBER>
96550

> <CHEMIDPLUS>
465-21-4

> <KEGG_COMPOUND_ACCESSION>
C16922

> <LIPID_MAPS_INSTANCE_ACCESSION>
LMST01130001

> <PUBMED_CITATION>
10438974; 21185919; 23949904; 24484199; 24515724; 24719521; 26111756; 26133118; 26381511; 26446205; 8282340

$$$$

Marvin  04201011232D          

 26 28  0  0  0  0            999 V2000
    3.1835    0.1768    0.0000 O   0  0  0  0  0  0  0  0  0  0  0  0
    3.8979   -0.2357    0.0000 C   0  0  1  0  0  0  0  0  0  0  0  0
    3.8979   -1.0607    0.0000 C   0  0  1  0  0  0  0  0  0  0  0  0
    3.1835   -1.4732    0.0000 C   0  0  2  0  0  0  0  0  0  0  0  0
    2.4690   -1.0607    0.0000 C   0  0  1  0  0  0  0  0  0  0  0  0
    2.4690   -0.2357    0.0000 C   0  0  1  0  0  0  0  0  0  0  0  0
    5.3269    1.4143    0.0000 C   0  0  2  0  0  0  0  0  0  0  0  0
    5.3269    2.2392    0.0000 C   0  0  1  0  0  0  0  0  0  0  0  0
    4.6124    2.6518    0.0000 C   0  0  1  0  0  0  0  0  0  0  0  0
    3.8979    2.2394    0.0000 C   0  0  2  0  0  0  0  0  0  0  0  0
    3.8979    1.4144    0.0000 C   0  0  1  0  0  0  0  0  0  0  0  0
    4.6124    1.0018    0.0000 C   0  0  1  0  0  0  0  0  0  0  0  0
    3.1834    1.0018    0.0000 O   0  0  0  0  0  0  0  0  0  0  0  0
    4.6124   -1.4732    0.0000 N   0  0  0  0  0  0  0  0  0  0  0  0
    1.7545   -1.4732    0.0000 O   0  0  0  0  0  0  0  0  0  0  0  0
    4.6125    3.4768    0.0000 O   0  0  0  0  0  0  0  0  0  0  0  0
    3.1834    2.6519    0.0000 O   0  0  0  0  0  0  0  0  0  0  0  0
    3.1835   -2.2982    0.0000 O   0  0  0  0  0  0  0  0  0  0  0  0
    1.7545    0.1768    0.0000 C   0  0  0  0  0  0  0  0  0  0  0  0
    1.0401   -0.2357    0.0000 O   0  0  0  0  0  0  0  0  0  0  0  0
    4.6124    0.1768    0.0000 O   0  0  0  0  0  0  0  0  0  0  0  0
    6.1115    2.4942    0.0000 O   0  0  0  0  0  0  0  0  0  0  0  0
    6.1115    1.1593    0.0000 O   0  0  0  0  0  0  0  0  0  0  0  0
    6.5964    1.8267    0.0000 P   0  0  0  0  0  0  0  0  0  0  0  0
    7.1798    2.4101    0.0000 O   0  0  0  0  0  0  0  0  0  0  0  0
    7.1798    1.2434    0.0000 O   0  0  0  0  0  0  0  0  0  0  0  0
  1  2  1  0  0  0  0
  1  6  1  0  0  0  0
  2  3  1  0  0  0  0
  3  4  1  0  0  0  0
  4  5  1  0  0  0  0
  5  6  1  0  0  0  0
  7 12  1  0  0  0  0
  8  9  1  0  0  0  0
  9 10  1  0  0  0  0
 10 11  1  0  0  0  0
 11 12  1  0  0  0  0
 11 13  1  1  0  0  0
  3 14  1  6  0  0  0
  5 15  1  6  0  0  0
  9 16  1  1  0  0  0
 10 17  1  6  0  0  0
  4 18  1  1  0  0  0
  6 19  1  1  0  0  0
 19 20  1  0  0  0  0
  2 21  1  6  0  0  0
 12 21  1  6  0  0  0
  7 23  1  1  0  0  0
  8  7  1  0  0  0  0
  8 22  1  1  0  0  0
 23 24  1  0  0  0  0
 22 24  1  0  0  0  0
 24 25  2  0  0  0  0
 24 26  1  0  0  0  0
M  END
> <ID>
CHEBI:52426

> <NAME>
6-(alpha-D-glucosaminyl)-1D-myo-inositol 1,2-cyclic phosphate

> <DEFINITION>
A myo-inositol cyclic phosphate that is 1D-myo-inositol 1,2-cyclic phosphate having an α-D-glucosaminyl residue attached at the 6-position.

> <STAR>
3

> <SECONDARY_ID>
CHEBI:52420; CHEBI:12192

> <SYNONYM>
6-(alpha-D-Glucosaminyl)-1D-myo-inositol 1,2-cyclic phosphate; (3aS,4R,5S,6S,7R,7aR)-2,5,6,7-tetrahydroxy-2-oxidohexahydro-1,3,2-benzodioxaphosphol-4-yl 2-amino-2-deoxy-alpha-D-glucopyranoside

> <IUPAC_NAME>
6-O-(2-amino-2-deoxy-beta-D-glucopyranosyl)-1D-myo-inositol 1,2-(hydrogen phosphate)

> <FORMULA>
C12H22NO12P; C12H22NO12P

> <MASS>
403.27630

> <MONOISOTOPIC_MASS>
403.08796

> <CHARGE>
0

> <SMILES>
N[C@@H]1[C@@H](O)[C@H](O)[C@@H](CO)O[C@@H]1O[C@@H]1[C@@H](O)[C@H](O)[C@@H](O)[C@H]2OP(O)(=O)O[C@@H]12

> <INCHI>
InChI=1S/C12H22NO12P/c13-3-5(16)4(15)2(1-14)22-12(3)23-9-7(18)6(17)8(19)10-11(9)25-26(20,21)24-10/h2-12,14-19H,1,13H2,(H,20,21)/t2-,3-,4-,5-,6+,7+,8-,9-,10-,11+,12-/m1/s1

> <INCHIKEY>
ZULNQPCZALKHMF-LBZOJLJLSA-N

> <CAS_REGISTRY_NUMBER>
140391-24-8

> <REAXYS_REGISTRY_NUMBER>
5458640

> <KEGG_COMPOUND_ACCESSION>
C16070

> <PUBMED_CITATION>
7521581; 7679286

$$$$

Marvin  07130914232D          

 14 14  0  0  1  0            999 V2000
   13.6610   -8.9512    0.0000 C   0  0  2  0  0  0  0  0  0  0  0  0
   13.9227   -9.7402    0.0000 C   0  0  2  0  0  0  0  0  0  0  0  0
   14.3285   -8.4696    0.0000 O   0  0  0  0  0  0  0  0  0  0  0  0
   14.7609   -9.7402    0.0000 C   0  0  2  0  0  0  0  0  0  0  0  0
   13.4486  -10.4115    0.0000 O   0  0  0  0  0  0  0  0  0  0  0  0
   15.0112   -8.9627    0.0000 C   0  0  0  0  0  0  0  0  0  0  0  0
   15.2502  -10.4002    0.0000 O   0  0  0  0  0  0  0  0  0  0  0  0
   15.8377   -8.6711    0.0000 O   0  0  0  0  0  0  0  0  0  0  0  0
   12.9465   -8.5387    0.0000 C   0  0  0  0  0  0  0  0  0  0  0  0
   12.2320   -8.9512    0.0000 O   0  0  0  0  0  0  0  0  0  0  0  0
   11.5175   -8.5387    0.0000 P   0  0  0  0  0  0  0  0  0  0  0  0
   10.8031   -8.9512    0.0000 O   0  0  0  0  0  0  0  0  0  0  0  0
   11.5175   -7.7137    0.0000 O   0  0  0  0  0  0  0  0  0  0  0  0
   11.3040   -9.3356    0.0000 O   0  0  0  0  0  0  0  0  0  0  0  0
  1  2  1  0  0  0  0
  1  3  1  0  0  0  0
  2  4  1  0  0  0  0
  2  5  1  6  0  0  0
  3  6  1  0  0  0  0
  4  7  1  6  0  0  0
  6  8  1  0  0  0  0
  4  6  1  0  0  0  0
  1  9  1  1  0  0  0
  9 10  1  0  0  0  0
 10 11  1  0  0  0  0
 11 12  1  0  0  0  0
 11 13  2  0  0  0  0
 11 14  1  0  0  0  0
M  END
> <ID>
CHEBI:52742

> <NAME>
D-ribofuranose 5-phosphate

> <DEFINITION>
The furanose form of D-ribose 5-phosphate.

> <STAR>
3

> <SYNONYM>
Ribose 5-phosphate; D-ribose-5-P; D-Ribose 5-phosphate; D-ribose 5'-phosphate

> <IUPAC_NAME>
D-ribofuranose 5-(dihydrogen phosphate)

> <FORMULA>
C5H11O8P

> <MASS>
230.10980

> <MONOISOTOPIC_MASS>
230.01915

> <CHARGE>
0

> <SMILES>
OC1O[C@H](COP(O)(O)=O)[C@@H](O)[C@H]1O

> <INCHI>
InChI=1S/C5H11O8P/c6-3-2(1-12-14(9,10)11)13-5(8)4(3)7/h2-8H,1H2,(H2,9,10,11)/t2-,3-,4-,5?/m1/s1

> <INCHIKEY>
KTVPXOYAKDPRHY-SOOFDHNKSA-N

> <CAS_REGISTRY_NUMBER>
4300-28-1

> <REAXYS_REGISTRY_NUMBER>
1728061

> <CHEMIDPLUS>
4300-28-1

> <HMDB_ACCESSION>
HMDB0001548

> <KEGG_COMPOUND_ACCESSION>
C00117

> <KNAPSACK_ACCESSION>
C00007473

> <METACYC_ACCESSION>
CPD-15317

> <WIKIPEDIA_ACCESSION>
D-ribose-5-P

> <PUBMED_CITATION>
22735334; 24643482; 25108762

$$$$

Marvin  11060913192D          

 27 30  0  0  0  0            999 V2000
   17.3705   -8.8597    0.0000 C   0  0  0  0  0  0  0  0  0  0  0  0
   18.0890   -9.2687    0.0000 N   0  0  0  0  0  0  0  0  0  0  0  0
   17.3636   -8.0380    0.0000 C   0  0  0  0  0  0  0  0  0  0  0  0
   16.6587   -9.2791    0.0000 C   0  0  0  0  0  0  0  0  0  0  0  0
   18.0821  -10.0974    0.0000 C   0  0  0  0  0  0  0  0  0  0  0  0
   18.7973   -8.8459    0.0000 C   0  0  0  0  0  0  0  0  0  0  0  0
   18.0718   -7.6219    0.0000 C   0  0  0  0  0  0  0  0  0  0  0  0
   16.6483   -7.6254    0.0000 C   0  0  0  0  0  0  0  0  0  0  0  0
   15.9436   -8.8734    0.0000 C   0  0  0  0  0  0  0  0  0  0  0  0
   18.4947  -10.8160    0.0000 C   0  0  0  0  0  0  0  0  0  0  0  0
   17.6627  -10.8092    0.0000 C   0  0  0  0  0  0  0  0  0  0  0  0
   18.7904   -8.0242    0.0000 C   0  0  0  0  0  0  0  0  0  0  0  0
   18.0649   -6.7933    0.0000 O   0  0  0  0  0  0  0  0  0  0  0  0
   15.9401   -8.0414    0.0000 C   0  0  0  0  0  0  0  0  0  0  0  0
   15.2765   -9.3306    0.0000 N   0  0  0  0  0  0  0  0  0  0  0  0
   15.2215   -7.6323    0.0000 F   0  0  0  0  0  0  0  0  0  0  0  0
   15.2765  -10.1557    0.0000 C   0  0  0  0  0  0  0  0  0  0  0  0
   14.5613   -8.9215    0.0000 C   0  0  0  0  0  0  0  0  0  0  0  0
   14.5648  -10.5718    0.0000 C   0  0  0  0  0  0  0  0  0  0  0  0
   13.8461   -9.3306    0.0000 C   0  0  0  0  0  0  0  0  0  0  0  0
   13.8461  -10.1557    0.0000 N   0  0  0  0  0  0  0  0  0  0  0  0
   14.5544  -11.3970    0.0000 C   0  0  0  0  0  0  0  0  0  0  0  0
   19.5048   -7.6117    0.0000 C   0  0  0  0  0  0  0  0  0  0  0  0
   20.2193   -8.0242    0.0000 O   0  0  0  0  0  0  0  0  0  0  0  0
   19.5048   -6.7867    0.0000 O   0  0  0  0  0  0  0  0  0  0  0  0
   16.6655  -10.1041    0.0000 O   0  0  0  0  0  0  0  0  0  0  0  0
   15.9544  -10.5224    0.0000 C   0  0  0  0  0  0  0  0  0  0  0  0
  9 14  2  0  0  0  0
 10 11  1  0  0  0  0
 20 21  1  0  0  0  0
  1  2  1  0  0  0  0
  1  3  1  0  0  0  0
  1  4  2  0  0  0  0
  2  5  1  0  0  0  0
  2  6  1  0  0  0  0
  3  7  1  0  0  0  0
  3  8  2  0  0  0  0
  4  9  1  0  0  0  0
  5 10  1  0  0  0  0
  5 11  1  0  0  0  0
  6 12  2  0  0  0  0
  7 13  2  0  0  0  0
  8 14  1  0  0  0  0
  9 15  1  0  0  0  0
 14 16  1  0  0  0  0
 15 17  1  0  0  0  0
 15 18  1  0  0  0  0
 17 19  1  0  0  0  0
 18 20  1  0  0  0  0
 19 21  1  0  0  0  0
 19 22  1  0  0  0  0
  7 12  1  0  0  0  0
 12 23  1  0  0  0  0
 23 24  1  0  0  0  0
 23 25  2  0  0  0  0
  4 26  1  0  0  0  0
 26 27  1  0  0  0  0
M  END
> <ID>
CHEBI:5280

> <NAME>
gatifloxacin

> <DEFINITION>
A monocarboxylic acid that is 4-oxo-1,4-dihydroquinoline-3-carboxylic acid which is substituted on the nitrogen by a cyclopropyl group and at positions 6, 7, and 8 by fluoro, 3-methylpiperazin-1-yl, and methoxy groups, respectively. Gatifloxacin is an antibiotic of the fourth-generation fluoroquinolone family, that like other members of that family, inhibits the bacterial topoisomerase type-II enzymes.

> <STAR>
3

> <SECONDARY_ID>
CHEBI:101712

> <SYNONYM>
AM 1155; 1-cyclopropyl-6-fluoro- 8-methoxy-7-(3-methylpiperazin-1-yl)- 4-oxo-quinoline-3-carboxylic acid; 1-Cyclopropyl-1,4-dihydro-6-fluoro-8-methoxy-7-(3-methyl-1-piperazinyl)-4-oxo-3-quinolinecarboxylic acid

> <IUPAC_NAME>
1-cyclopropyl-6-fluoro-8-methoxy-7-(3-methylpiperazin-1-yl)-4-oxo-1,4-dihydroquinoline-3-carboxylic acid

> <INN>
gatifloxacinum; gatifloxacino; gatifloxacine; gatifloxacin

> <FORMULA>
C19H22FN3O4

> <MASS>
375.39410

> <MONOISOTOPIC_MASS>
375.15943

> <CHARGE>
0

> <SMILES>
COc1c(N2CCNC(C)C2)c(F)cc2c1n(cc(C(O)=O)c2=O)C1CC1

> <INCHI>
InChI=1S/C19H22FN3O4/c1-10-8-22(6-5-21-10)16-14(20)7-12-15(18(16)27-2)23(11-3-4-11)9-13(17(12)24)19(25)26/h7,9-11,21H,3-6,8H2,1-2H3,(H,25,26)

> <INCHIKEY>
XUBOMFCQGDBHNK-UHFFFAOYSA-N

> <BEILSTEIN_REGISTRY_NUMBER>
7445861

> <CAS_REGISTRY_NUMBER>
112811-59-3

> <GMELIN_REGISTRY_NUMBER>
2281206

> <REAXYS_REGISTRY_NUMBER>
7445861

> <CHEMIDPLUS>
112811-59-3

> <DRUGBANK_ACCESSION>
DB01044

> <KEGG_COMPOUND_ACCESSION>
C07661

> <KEGG_DRUG_ACCESSION>
D08011

> <LINCS_ACCESSION>
LSM-5139

> <WIKIPEDIA_ACCESSION>
Gatifloxacin

> <PUBMED_CITATION>
26963935; 10737746; 12190308; 12620077; 12873512; 12904069; 15125930; 15745831; 15911273; 16078842; 16337791; 16554151; 16759086; 17043111; 17043131; 17064062; 17116666; 17116668; 17157008; 17220425; 17261623; 17276057; 17296740; 17325221; 17387152; 17804222; 17933535; 17960928; 18078756; 18304818; 7473575

$$$$

Marvin  08270916262D          

 14 13  0  0  0  0            999 V2000
    2.5006   -0.2062    0.0000 O   0  0  0  0  0  0  0  0  0  0  0  0
    0.3572    0.2062    0.0000 C   0  0  0  0  0  0  0  0  0  0  0  0
   -0.3572   -0.2063    0.0000 C   0  0  0  0  0  0  0  0  0  0  0  0
   -1.0717    0.2062    0.0000 C   0  0  0  0  0  0  0  0  0  0  0  0
   -1.7862   -0.2063    0.0000 C   0  0  0  0  0  0  0  0  0  0  0  0
   -2.5006    0.2062    0.0000 N   0  0  0  0  0  0  0  0  0  0  0  0
    1.7862    0.2063    0.0000 C   0  0  0  0  0  0  0  0  0  0  0  0
    1.7862    1.0313    0.0000 O   0  0  0  0  0  0  0  0  0  0  0  0
    1.0717   -0.2063    0.0000 C   0  0  1  0  0  0  0  0  0  0  0  0
    1.0717   -1.0313    0.0000 N   0  0  0  0  0  0  0  0  0  0  0  0
   -3.2151   -0.2063    0.0000 C   0  0  0  0  0  0  0  0  0  0  0  0
   -3.9295    0.2063    0.0000 C   0  0  0  0  0  0  0  0  0  0  0  0
   -4.6440   -0.2062    0.0000 O   0  0  0  0  0  0  0  0  0  0  0  0
   -3.9295    1.0313    0.0000 O   0  0  0  0  0  0  0  0  0  0  0  0
  1  7  1  0  0  0  0
  9  7  1  0  0  0  0
  2  9  1  0  0  0  0
  3  2  1  0  0  0  0
  4  3  1  0  0  0  0
  5  4  1  0  0  0  0
  6  5  1  0  0  0  0
  7  8  2  0  0  0  0
  9 10  1  1  0  0  0
  6 11  1  0  0  0  0
 11 12  1  0  0  0  0
 12 13  1  0  0  0  0
 12 14  2  0  0  0  0
M  END
> <ID>
CHEBI:53014

> <NAME>
N(6)-carboxymethyl-L-lysine

> <DEFINITION>
An L-lysine derivative with a carboxymethyl substituent at the N6-position.

> <STAR>
3

> <SYNONYM>
N(epsilon)-carboxymethyl-L-lysine; NECML; N(epsilon)-(Carboxymethyl)lysine; N(6)-Carboxymethyllysine

> <IUPAC_NAME>
N(6)-(carboxymethyl)-L-lysine

> <FORMULA>
C8H16N2O4

> <MASS>
204.22360

> <MONOISOTOPIC_MASS>
204.11101

> <CHARGE>
0

> <SMILES>
N[C@@H](CCCCNCC(O)=O)C(O)=O

> <INCHI>
InChI=1S/C8H16N2O4/c9-6(8(13)14)3-1-2-4-10-5-7(11)12/h6,10H,1-5,9H2,(H,11,12)(H,13,14)/t6-/m0/s1

> <INCHIKEY>
NUXSIDPKKIEIMI-LURJTMIESA-N

> <BEILSTEIN_REGISTRY_NUMBER>
4989963

> <CAS_REGISTRY_NUMBER>
5746-04-3

> <REAXYS_REGISTRY_NUMBER>
4989963

> <CHEMIDPLUS>
5746-04-3

> <PUBMED_CITATION>
17939855; 19962413; 20030411; 7662668; 9129235; 9506998

$$$$

Marvin  10200916462D          

 23 24  0  0  1  0            999 V2000
   14.2717   -8.0114    0.0000 C   0  0  0  0  0  0  0  0  0  0  0  0
   14.2717   -8.8364    0.0000 C   0  0  2  0  0  0  0  0  0  0  0  0
   13.5572   -7.5989    0.0000 O   0  0  0  0  0  0  0  0  0  0  0  0
   13.5572   -9.2489    0.0000 C   0  0  2  0  0  0  0  0  0  0  0  0
   12.8428   -8.0114    0.0000 C   0  0  1  0  0  0  0  0  0  0  0  0
   12.8428   -8.8364    0.0000 C   0  0  1  0  0  0  0  0  0  0  0  0
   14.9862   -7.5989    0.0000 O   0  0  0  0  0  0  0  0  0  0  0  0
   14.9862   -9.2489    0.0000 O   0  0  0  0  0  0  0  0  0  0  0  0
   13.5572  -10.0739    0.0000 O   0  0  0  0  0  0  0  0  0  0  0  0
   12.1283   -9.2489    0.0000 O   0  0  0  0  0  0  0  0  0  0  0  0
   12.1283   -7.5989    0.0000 C   0  0  0  0  0  0  0  0  0  0  0  0
   11.4138   -8.0114    0.0000 O   0  0  0  0  0  0  0  0  0  0  0  0
   10.6993   -7.5989    0.0000 C   0  0  2  0  0  0  0  0  0  0  0  0
    9.9849   -8.0114    0.0000 C   0  0  2  0  0  0  0  0  0  0  0  0
   10.6994   -6.7739    0.0000 O   0  0  0  0  0  0  0  0  0  0  0  0
    9.2704   -7.5989    0.0000 C   0  0  2  0  0  0  0  0  0  0  0  0
    9.9849   -6.3614    0.0000 C   0  0  1  0  0  0  0  0  0  0  0  0
    9.2704   -6.7739    0.0000 C   0  0  1  0  0  0  0  0  0  0  0  0
    9.9849   -8.8364    0.0000 O   0  0  0  0  0  0  0  0  0  0  0  0
    8.5559   -8.0113    0.0000 O   0  0  0  0  0  0  0  0  0  0  0  0
    8.5560   -6.3614    0.0000 O   0  0  0  0  0  0  0  0  0  0  0  0
    9.9849   -5.5364    0.0000 C   0  0  0  0  0  0  0  0  0  0  0  0
    9.2705   -5.1239    0.0000 O   0  0  0  0  0  0  0  0  0  0  0  0
  1  2  1  0  0  0  0
  1  3  1  0  0  0  0
  2  4  1  0  0  0  0
  3  5  1  0  0  0  0
  4  6  1  0  0  0  0
  5  6  1  0  0  0  0
  1  7  1  0  0  0  0
  2  8  1  1  0  0  0
  4  9  1  1  0  0  0
  6 10  1  6  0  0  0
  5 11  1  1  0  0  0
 12 11  1  0  0  0  0
 13 14  1  0  0  0  0
 13 15  1  0  0  0  0
 14 16  1  0  0  0  0
 15 17  1  0  0  0  0
 16 18  1  0  0  0  0
 17 18  1  0  0  0  0
 13 12  1  6  0  0  0
 14 19  1  1  0  0  0
 16 20  1  1  0  0  0
 18 21  1  6  0  0  0
 17 22  1  1  0  0  0
 23 22  1  0  0  0  0
M  END
> <ID>
CHEBI:53445

> <NAME>
alpha-D-Manp-(1->6)-D-Manp

> <DEFINITION>
A glycosylmannose consisting of two D-mannopyranose residues joined via an α-(1→6)-linkage.

> <STAR>
3

> <SYNONYM>
Neoglyco interleukin-1a; M2(6); alpha-D-Man-(1->6)-D-Man; 6-O-alpha-D-mannopyranosyl-D-mannopyranose; (Man)2

> <IUPAC_NAME>
alpha-D-mannopyranosyl-(1->6)-D-mannopyranose

> <FORMULA>
C12H22O11

> <MASS>
342.29650

> <MONOISOTOPIC_MASS>
342.11621

> <CHARGE>
0

> <SMILES>
OC[C@H]1O[C@H](OC[C@H]2OC(O)[C@@H](O)[C@@H](O)[C@@H]2O)[C@@H](O)[C@@H](O)[C@@H]1O

> <INCHI>
InChI=1S/C12H22O11/c13-1-3-5(14)8(17)10(19)12(23-3)21-2-4-6(15)7(16)9(18)11(20)22-4/h3-20H,1-2H2/t3-,4-,5-,6-,7+,8+,9+,10+,11?,12+/m1/s1

> <INCHIKEY>
DLRVVLDZNNYCBX-FZFXURTHSA-N

> <BEILSTEIN_REGISTRY_NUMBER>
1292769

> <REAXYS_REGISTRY_NUMBER>
1292769

> <KEGG_GLYCAN_ACCESSION>
G00756

> <PUBMED_CITATION>
1368530; 9621106; 9761869

$$$$
ChEBI
  Marvin  10210911432D          

 10 10  0  0  1  0            999 V2000
    8.8545   -8.9650    0.0000 C   0  0  0  0  0  0  0  0  0  0  0  0
    8.8545   -9.7900    0.0000 C   0  0  1  0  0  0  0  0  0  0  0  0
    8.1400   -8.5525    0.0000 O   0  0  0  0  0  0  0  0  0  0  0  0
    8.1400  -10.2025    0.0000 C   0  0  2  0  0  0  0  0  0  0  0  0
    7.4255   -8.9650    0.0000 C   0  0  0  0  0  0  0  0  0  0  0  0
    7.4255   -9.7900    0.0000 C   0  0  1  0  0  0  0  0  0  0  0  0
    9.5689   -8.5525    0.0000 O   0  0  0  0  0  0  0  0  0  0  0  0
    9.5689  -10.2025    0.0000 O   0  0  0  0  0  0  0  0  0  0  0  0
    8.1400  -11.0275    0.0000 O   0  0  0  0  0  0  0  0  0  0  0  0
    6.7110  -10.2025    0.0000 O   0  0  0  0  0  0  0  0  0  0  0  0
  1  2  1  0  0  0  0
  1  3  1  0  0  0  0
  2  4  1  0  0  0  0
  3  5  1  0  0  0  0
  4  6  1  0  0  0  0
  5  6  1  0  0  0  0
  1  7  1  0  0  0  0
  2  8  1  6  0  0  0
  4  9  1  1  0  0  0
  6 10  1  6  0  0  0
M  END
> <ID>
CHEBI:53455

> <NAME>
D-xylopyranose

> <DEFINITION>
D-Xylose in its pyranose form.

> <STAR>
3

> <SYNONYM>
Wood sugar; Wood sugar; D-xylose; D-xylose; D-xylopentose; D-(+)-xylose; (3R,4S,5R)-tetrahydro-2H-pyran-2,3,4,5-tetrol

> <IUPAC_NAME>
D-xylopyranose

> <FORMULA>
C5H10O5

> <MASS>
150.12990

> <MONOISOTOPIC_MASS>
150.05282

> <CHARGE>
0

> <SMILES>
O[C@@H]1COC(O)[C@H](O)[C@H]1O

> <INCHI>
InChI=1S/C5H10O5/c6-2-1-10-5(9)4(8)3(2)7/h2-9H,1H2/t2-,3+,4-,5?/m1/s1

> <INCHIKEY>
SRBFZHDQGSBBOR-IOVATXLUSA-N

> <BEILSTEIN_REGISTRY_NUMBER>
1280757

> <CAS_REGISTRY_NUMBER>
58-86-6

> <REAXYS_REGISTRY_NUMBER>
1280757

> <HMDB_ACCESSION>
HMDB0000098

> <KEGG_COMPOUND_ACCESSION>
C00181

> <KEGG_DRUG_ACCESSION>
D06346

> <KNAPSACK_ACCESSION>
C00007290

> <WIKIPEDIA_ACCESSION>
Xylose

> <PUBMED_CITATION>
13338266; 17979222; 22770225; 23279585; 23359361; 23721368; 23872280; 24053822; 24065156; 24643482; 25108762; 7540499

$$$$

Marvin  07041117072D          

 48 51  0  0  1  0            999 V2000
   22.2633  -12.8621    0.0000 C   0  0  1  0  0  0  0  0  0  0  0  0
   22.2633  -13.6871    0.0000 C   0  0  1  0  0  0  0  0  0  0  0  0
   21.5488  -12.4496    0.0000 O   0  0  0  0  0  0  0  0  0  0  0  0
   21.5488  -14.0996    0.0000 C   0  0  2  0  0  0  0  0  0  0  0  0
   20.8344  -12.8621    0.0000 C   0  0  1  0  0  0  0  0  0  0  0  0
   20.8344  -13.6871    0.0000 C   0  0  2  0  0  0  0  0  0  0  0  0
   22.9777  -14.0996    0.0000 O   0  0  0  0  0  0  0  0  0  0  0  0
   21.5488  -14.9246    0.0000 O   0  0  0  0  0  0  0  0  0  0  0  0
   20.1198  -14.0996    0.0000 O   0  0  0  0  0  0  0  0  0  0  0  0
   20.1198  -12.4496    0.0000 C   0  0  0  0  0  0  0  0  0  0  0  0
   19.4054  -12.8621    0.0000 O   0  0  0  0  0  0  0  0  0  0  0  0
   20.8343  -15.3371    0.0000 C   0  0  1  0  0  0  0  0  0  0  0  0
   20.8343  -16.1621    0.0000 C   0  0  1  0  0  0  0  0  0  0  0  0
   20.1198  -14.9246    0.0000 O   0  0  0  0  0  0  0  0  0  0  0  0
   20.1198  -16.5746    0.0000 C   0  0  2  0  0  0  0  0  0  0  0  0
   19.4053  -15.3371    0.0000 C   0  0  1  0  0  0  0  0  0  0  0  0
   19.4053  -16.1621    0.0000 C   0  0  1  0  0  0  0  0  0  0  0  0
   21.5488  -16.5746    0.0000 N   0  0  0  0  0  0  0  0  0  0  0  0
   20.1198  -17.3996    0.0000 O   0  0  0  0  0  0  0  0  0  0  0  0
   18.6908  -16.5746    0.0000 O   0  0  0  0  0  0  0  0  0  0  0  0
   18.6908  -14.9246    0.0000 C   0  0  0  0  0  0  0  0  0  0  0  0
   17.9764  -15.3371    0.0000 O   0  0  0  0  0  0  0  0  0  0  0  0
   22.2632  -16.1621    0.0000 C   0  0  0  0  0  0  0  0  0  0  0  0
   22.2633  -15.3371    0.0000 O   0  0  0  0  0  0  0  0  0  0  0  0
   22.9777  -16.5746    0.0000 C   0  0  0  0  0  0  0  0  0  0  0  0
   19.4053  -17.8121    0.0000 C   0  0  1  0  0  0  0  0  0  0  0  0
   19.4053  -18.6371    0.0000 C   0  0  1  0  0  0  0  0  0  0  0  0
   18.6908  -17.3996    0.0000 O   0  0  0  0  0  0  0  0  0  0  0  0
   18.6908  -19.0496    0.0000 C   0  0  2  0  0  0  0  0  0  0  0  0
   17.9763  -17.8121    0.0000 C   0  0  1  0  0  0  0  0  0  0  0  0
   17.9763  -18.6371    0.0000 C   0  0  2  0  0  0  0  0  0  0  0  0
   20.1198  -19.0496    0.0000 O   0  0  0  0  0  0  0  0  0  0  0  0
   18.6908  -19.8746    0.0000 O   0  0  0  0  0  0  0  0  0  0  0  0
   17.2619  -19.0496    0.0000 O   0  0  0  0  0  0  0  0  0  0  0  0
   17.2619  -17.3996    0.0000 C   0  0  0  0  0  0  0  0  0  0  0  0
   16.5474  -17.8121    0.0000 O   0  0  0  0  0  0  0  0  0  0  0  0
   25.1212  -11.2121    0.0000 C   0  0  1  0  0  0  0  0  0  0  0  0
   25.1212  -12.0371    0.0000 C   0  0  1  0  0  0  0  0  0  0  0  0
   24.4067  -10.7997    0.0000 O   0  0  0  0  0  0  0  0  0  0  0  0
   24.4067  -12.4497    0.0000 C   0  0  2  0  0  0  0  0  0  0  0  0
   23.6922  -11.2122    0.0000 C   0  0  1  0  0  0  0  0  0  0  0  0
   23.6922  -12.0371    0.0000 C   0  0  1  0  0  0  0  0  0  0  0  0
   25.8357  -10.7996    0.0000 O   0  0  0  0  0  0  0  0  0  0  0  0
   25.8357  -12.4497    0.0000 O   0  0  0  0  0  0  0  0  0  0  0  0
   24.4067  -13.2747    0.0000 O   0  0  0  0  0  0  0  0  0  0  0  0
   22.9778  -10.7997    0.0000 C   0  0  0  0  0  0  0  0  0  0  0  0
   22.9778   -9.9747    0.0000 O   0  0  0  0  0  0  0  0  0  0  0  0
   22.9777  -12.4496    0.0000 O   0  0  0  0  0  0  0  0  0  0  0  0
  1  2  1  0  0  0  0
  1  3  1  0  0  0  0
  2  4  1  0  0  0  0
  3  5  1  0  0  0  0
  4  6  1  0  0  0  0
  5  6  1  0  0  0  0
  1 48  1  1  0  0  0
  2  7  1  6  0  0  0
  4  8  1  1  0  0  0
  6  9  1  1  0  0  0
  5 10  1  1  0  0  0
 11 10  1  0  0  0  0
 12 13  1  0  0  0  0
 12 14  1  0  0  0  0
 13 15  1  0  0  0  0
 14 16  1  0  0  0  0
 15 17  1  0  0  0  0
 16 17  1  0  0  0  0
 12  8  1  1  0  0  0
 13 18  1  6  0  0  0
 15 19  1  1  0  0  0
 17 20  1  6  0  0  0
 16 21  1  1  0  0  0
 22 21  1  0  0  0  0
 24 23  2  0  0  0  0
 25 23  1  0  0  0  0
 18 23  1  0  0  0  0
 26 27  1  0  0  0  0
 26 28  1  0  0  0  0
 27 29  1  0  0  0  0
 28 30  1  0  0  0  0
 29 31  1  0  0  0  0
 30 31  1  0  0  0  0
 26 19  1  1  0  0  0
 27 32  1  6  0  0  0
 29 33  1  1  0  0  0
 31 34  1  1  0  0  0
 30 35  1  1  0  0  0
 36 35  1  0  0  0  0
 37 38  1  0  0  0  0
 37 39  1  0  0  0  0
 38 40  1  0  0  0  0
 39 41  1  0  0  0  0
 40 42  1  0  0  0  0
 41 42  1  0  0  0  0
 37 43  1  1  0  0  0
 38 44  1  6  0  0  0
 40 45  1  1  0  0  0
 41 46  1  1  0  0  0
 46 47  1  0  0  0  0
 42 48  1  6  0  0  0
M  END
> <ID>
CHEBI:53481

> <NAME>
beta-D-Galp-(1->3)-beta-D-GlcpNAc-(1->3)-beta-D-Galp-(1->4)-beta-D-Glcp

> <DEFINITION>
A β-D-Gal-(1→3)-β-D-GlcNAc-(1→3)-β-D-Gal-(1→4)-D-Glc having β-configuration at the reducing end anomeric centre.

> <STAR>
3

> <SYNONYM>
Galbeta1-3GlcNAcbeta1-3Galbeta1-4Glcbeta; Galb1-3GlcNAcb1-3Galb1-4Glcb; beta-D-galactosyl-(1->3)-N-acetyl-beta-D-glucosaminyl-(1->3)-beta-D-galactosyl-(1->4)-beta-D-glucose; beta-D-Gal-(1->3)-beta-D-GlcNAc-(1->3)-beta-D-Gal-(1->4)-beta-D-Glc

> <IUPAC_NAME>
beta-D-galactopyranosyl-(1->3)-2-acetamido-2-deoxy-beta-D-glucopyranosyl-(1->3)-beta-D-galactopyranosyl-(1->4)-beta-D-glucopyranose

> <FORMULA>
C26H45NO21

> <MASS>
707.62960

> <MONOISOTOPIC_MASS>
707.24841

> <CHARGE>
0

> <SMILES>
CC(=O)N[C@H]1[C@@H](O[C@H](CO)[C@@H](O)[C@@H]1O[C@@H]1O[C@H](CO)[C@H](O)[C@H](O)[C@H]1O)O[C@H]1[C@@H](O)[C@@H](CO)O[C@@H](O[C@H]2[C@H](O)[C@@H](O)[C@H](O)O[C@@H]2CO)[C@@H]1O

> <INCHI>
InChI=1S/C26H45NO21/c1-6(32)27-11-21(47-25-18(39)15(36)12(33)7(2-28)44-25)13(34)8(3-29)43-24(11)48-22-14(35)9(4-30)45-26(19(22)40)46-20-10(5-31)42-23(41)17(38)16(20)37/h7-26,28-31,33-41H,2-5H2,1H3,(H,27,32)/t7-,8-,9-,10-,11-,12+,13-,14+,15+,16-,17-,18-,19-,20-,21-,22+,23-,24+,25+,26+/m1/s1

> <INCHIKEY>
AXQLFFDZXPOFPO-UNTPKZLMSA-N

> <PUBMED_CITATION>
1398682; 19443021; 25568069; 31537530

$$$$

Marvin  11221111432D          

 21 21  0  0  1  0            999 V2000
   11.3703   -5.9886    0.0000 C   0  0  2  0  0  0  0  0  0  0  0  0
   11.3703   -6.8135    0.0000 C   0  0  1  0  0  0  0  0  0  0  0  0
   10.6556   -5.5762    0.0000 O   0  0  0  0  0  0  0  0  0  0  0  0
   10.6558   -7.2260    0.0000 C   0  0  2  0  0  0  0  0  0  0  0  0
    9.9412   -5.9887    0.0000 C   0  0  1  0  0  0  0  0  0  0  0  0
    9.9413   -6.8135    0.0000 C   0  0  2  0  0  0  0  0  0  0  0  0
   12.0848   -7.2260    0.0000 N   0  0  0  0  0  0  0  0  0  0  0  0
   10.6556   -8.0510    0.0000 O   0  0  0  0  0  0  0  0  0  0  0  0
    9.2269   -7.2260    0.0000 O   0  0  0  0  0  0  0  0  0  0  0  0
    9.2266   -5.5762    0.0000 C   0  0  0  0  0  0  0  0  0  0  0  0
    8.5123   -5.9886    0.0000 O   0  0  0  0  0  0  0  0  0  0  0  0
   12.0848   -8.0509    0.0000 C   0  0  0  0  0  0  0  0  0  0  0  0
   12.7992   -8.4634    0.0000 O   0  0  0  0  0  0  0  0  0  0  0  0
   11.3703   -8.4635    0.0000 C   0  0  0  0  0  0  0  0  0  0  0  0
   12.0847   -5.5759    0.0000 O   0  0  0  0  0  0  0  0  0  0  0  0
   14.2282   -5.9884    0.0000 C   0  0  0  0  0  0  0  0  0  0  0  0
   13.5137   -5.5759    0.0000 C   0  0  1  0  0  0  0  0  0  0  0  0
   14.2282   -6.8134    0.0000 O   0  0  0  0  0  0  0  0  0  0  0  0
   13.5137   -4.7509    0.0000 N   0  0  0  0  0  0  0  0  0  0  0  0
   12.7993   -5.9884    0.0000 C   0  0  0  0  0  0  0  0  0  0  0  0
   14.9426   -5.5759    0.0000 O   0  0  0  0  0  0  0  0  0  0  0  0
  1  2  1  0  0  0  0
  1  3  1  0  0  0  0
  2  4  1  0  0  0  0
  3  5  1  0  0  0  0
  4  6  1  0  0  0  0
  5  6  1  0  0  0  0
  2  7  1  6  0  0  0
  4  8  1  1  0  0  0
  6  9  1  1  0  0  0
  5 10  1  1  0  0  0
 11 10  1  0  0  0  0
 13 12  2  0  0  0  0
 14 12  1  0  0  0  0
  7 12  1  0  0  0  0
  1 15  1  6  0  0  0
 16 17  1  0  0  0  0
 16 18  2  0  0  0  0
 17 19  1  6  0  0  0
 17 20  1  0  0  0  0
 20 15  1  0  0  0  0
 21 16  1  0  0  0  0
M  END
> <ID>
CHEBI:53608

> <NAME>
O-(N-acetyl-alpha-D-galactosaminyl)-L-serine

> <DEFINITION>
A non-proteinogenic L-amino acid that is N-acetyl-α-D-galactosamine linked via an α glycosidic bond to the O at position 3 of L-serine.

> <STAR>
3

> <SECONDARY_ID>
CHEBI:46057

> <SYNONYM>
O-(N-acetyl-alpha-D-galactosaminyl)-L-serine; GalNAcalpha1-Ser; GalNAc(alpha1->O)Ser; alpha-D-GalNAc-Ser

> <IUPAC_NAME>
O-(2-acetamido-2-deoxy-alpha-D-galactopyranosyl)-L-serine

> <FORMULA>
C11H20N2O8

> <MASS>
308.28510

> <MONOISOTOPIC_MASS>
308.12197

> <CHARGE>
0

> <SMILES>
CC(=O)N[C@@H]1[C@@H](O)[C@@H](O)[C@@H](CO)O[C@@H]1OC[C@H](N)C(O)=O

> <INCHI>
InChI=1S/C11H20N2O8/c1-4(15)13-7-9(17)8(16)6(2-14)21-11(7)20-3-5(12)10(18)19/h5-9,11,14,16-17H,2-3,12H2,1H3,(H,13,15)(H,18,19)/t5-,6+,7+,8-,9+,11-/m0/s1

> <INCHIKEY>
REDMNGDGDYFZRE-WKWISIMFSA-N

> <REAXYS_REGISTRY_NUMBER>
5115296

> <PDBECHEM_ACCESSION>
TNR

> <PUBMED_CITATION>
15864747

$$$$

Marvin  11100918112D          

 42 43  0  0  1  0            999 V2000
   11.5289  -17.6853    0.0000 C   0  0  0  0  0  0  0  0  0  0  0  0
   10.8145  -18.0978    0.0000 C   0  0  1  0  0  0  0  0  0  0  0  0
   11.5289  -16.8603    0.0000 O   0  0  0  0  0  0  0  0  0  0  0  0
   10.8145  -18.9228    0.0000 N   0  0  0  0  0  0  0  0  0  0  0  0
   10.1000  -17.6853    0.0000 C   0  0  0  0  0  0  0  0  0  0  0  0
    9.3855  -18.0978    0.0000 O   0  0  0  0  0  0  0  0  0  0  0  0
   12.2434  -18.0978    0.0000 O   0  0  0  0  0  0  0  0  0  0  0  0
    8.6711  -18.5103    0.0000 C   0  0  2  0  0  0  0  0  0  0  0  0
    8.6711  -19.3353    0.0000 C   0  0  1  0  0  0  0  0  0  0  0  0
    7.9565  -18.0978    0.0000 O   0  0  0  0  0  0  0  0  0  0  0  0
    7.9565  -19.7478    0.0000 C   0  0  2  0  0  0  0  0  0  0  0  0
    7.2421  -18.5103    0.0000 C   0  0  1  0  0  0  0  0  0  0  0  0
    7.2421  -19.3353    0.0000 C   0  0  2  0  0  0  0  0  0  0  0  0
    7.9565  -20.5032    0.0000 O   0  0  0  0  0  0  0  0  0  0  0  0
    6.5276  -19.7478    0.0000 O   0  0  0  0  0  0  0  0  0  0  0  0
    6.5276  -18.0978    0.0000 C   0  0  0  0  0  0  0  0  0  0  0  0
    5.8131  -18.5103    0.0000 O   0  0  0  0  0  0  0  0  0  0  0  0
    9.3855  -20.5728    0.0000 C   0  0  0  0  0  0  0  0  0  0  0  0
    8.6710  -20.9853    0.0000 O   0  0  0  0  0  0  0  0  0  0  0  0
    9.3855  -19.7478    0.0000 N   0  0  0  0  0  0  0  0  0  0  0  0
   10.1000  -20.9853    0.0000 C   0  0  0  0  0  0  0  0  0  0  0  0
    5.0987  -18.9228    0.0000 C   0  0  2  0  0  0  0  0  0  0  0  0
    5.0987  -19.7479    0.0000 C   0  0  0  0  0  0  0  0  0  0  0  0
    4.3842  -20.1603    0.0000 C   0  0  1  0  0  0  0  0  0  0  0  0
    3.6697  -19.7478    0.0000 C   0  0  2  0  0  0  0  0  0  0  0  0
    4.3842  -18.5103    0.0000 O   0  0  0  0  0  0  0  0  0  0  0  0
    3.6698  -18.9228    0.0000 C   0  0  1  0  0  0  0  0  0  0  0  0
    4.3962  -21.0301    0.0000 O   0  0  0  0  0  0  0  0  0  0  0  0
    3.0943  -21.2437    0.0000 C   0  0  0  0  0  0  0  0  0  0  0  0
    3.8585  -21.6761    0.0000 O   0  0  0  0  0  0  0  0  0  0  0  0
    3.0844  -20.4087    0.0000 N   0  0  0  0  0  0  0  0  0  0  0  0
    2.4692  -21.6362    0.0000 C   0  0  0  0  0  0  0  0  0  0  0  0
    3.6430  -18.0599    0.0000 H   0  0  0  0  0  0  0  0  0  0  0  0
    5.0987  -18.0978    0.0000 C   0  0  0  0  0  0  0  0  0  0  0  0
    4.3842  -17.6853    0.0000 O   0  0  0  0  0  0  0  0  0  0  0  0
    5.8133  -17.6853    0.0000 O   0  0  0  0  0  0  0  0  0  0  0  0
    2.7633  -18.9253    0.0000 C   0  0  1  0  0  0  0  0  0  0  0  0
    2.0488  -18.5128    0.0000 C   0  0  1  0  0  0  0  0  0  0  0  0
    1.3343  -18.9253    0.0000 C   0  0  0  0  0  0  0  0  0  0  0  0
    0.6199  -18.5128    0.0000 O   0  0  0  0  0  0  0  0  0  0  0  0
    2.0488  -17.6878    0.0000 O   0  0  0  0  0  0  0  0  0  0  0  0
    2.7633  -19.7503    0.0000 O   0  0  0  0  0  0  0  0  0  0  0  0
  1  2  1  0  0  0  0
  1  3  2  0  0  0  0
  2  4  1  1  0  0  0
  2  5  1  0  0  0  0
  5  6  1  0  0  0  0
  7  1  1  0  0  0  0
  8  9  1  0  0  0  0
  8 10  1  0  0  0  0
  9 11  1  0  0  0  0
 10 12  1  0  0  0  0
 11 13  1  0  0  0  0
 12 13  1  0  0  0  0
  8  6  1  6  0  0  0
 11 14  1  1  0  0  0
 13 15  1  1  0  0  0
 12 16  1  1  0  0  0
 17 16  1  0  0  0  0
 19 18  2  0  0  0  0
 20 18  1  0  0  0  0
 21 18  1  0  0  0  0
  9 20  1  6  0  0  0
 24 23  1  0  0  0  0
 22 23  1  0  0  0  0
 25 24  1  0  0  0  0
 26 22  1  0  0  0  0
 27 25  1  0  0  0  0
 27 26  1  0  0  0  0
 24 28  1  6  0  0  0
 30 29  2  0  0  0  0
 31 29  1  0  0  0  0
 32 29  1  0  0  0  0
 25 31  1  1  0  0  0
 27 33  1  1  0  0  0
 22 17  1  6  0  0  0
 35 34  2  0  0  0  0
 36 34  1  0  0  0  0
 22 34  1  1  0  0  0
 27 37  1  0  0  0  0
 37 38  1  0  0  0  0
 38 39  1  0  0  0  0
 39 40  1  0  0  0  0
 38 41  1  1  0  0  0
 37 42  1  6  0  0  0
M  END
> <ID>
CHEBI:53610

> <NAME>
O-[N-acetyl-alpha-neuraminyl-(2->6)-N-acetyl-alpha-D-galactosaminyl]-L-serine

> <DEFINITION>
The L-α-amino acid that is N-acetyl-α-neuraminyl-(2→6)-N-acetyl-α-D-galactosamine linked via an α glycosidic bond to the O at position 3 of L-serine.

> <STAR>
3

> <SYNONYM>
NeuAc(alpha->6)GalNAc(alpha1->O)Ser

> <IUPAC_NAME>
O-[(5-acetamido-3,5-dideoxy-D-glycero-alpha-D-galacto-nonulopyranosylonic acid)-(2->6)-2-acetamido-2-deoxy-alpha-D-galactopyranosyl]-L-serine

> <FORMULA>
C22H37N3O16

> <MASS>
599.53970

> <MONOISOTOPIC_MASS>
599.21738

> <CHARGE>
0

> <SMILES>
[H][C@]1(O[C@@](C[C@H](O)[C@H]1NC(C)=O)(OC[C@H]1O[C@H](OC[C@H](N)C(O)=O)[C@H](NC(C)=O)[C@@H](O)[C@H]1O)C(O)=O)[C@H](O)[C@H](O)CO

> <INCHI>
InChI=1S/C22H37N3O16/c1-7(27)24-13-10(29)3-22(21(36)37,41-18(13)15(31)11(30)4-26)39-6-12-16(32)17(33)14(25-8(2)28)20(40-12)38-5-9(23)19(34)35/h9-18,20,26,29-33H,3-6,23H2,1-2H3,(H,24,27)(H,25,28)(H,34,35)(H,36,37)/t9-,10-,11+,12+,13+,14+,15+,16-,17+,18+,20-,22+/m0/s1

> <INCHIKEY>
RMINQIRDFIBNLE-NNRWGFCXSA-N

> <PUBMED_CITATION>
19447147

$$$$

Marvin  11100918132D          

 43 44  0  0  1  0            999 V2000
   23.9238  -16.8404    0.0000 C   0  0  0  0  0  0  0  0  0  0  0  0
   23.2094  -17.2529    0.0000 C   0  0  1  0  0  0  0  0  0  0  0  0
   23.9238  -16.0154    0.0000 O   0  0  0  0  0  0  0  0  0  0  0  0
   23.2094  -18.0779    0.0000 N   0  0  0  0  0  0  0  0  0  0  0  0
   22.4949  -16.8404    0.0000 C   0  0  0  0  0  0  0  0  0  0  0  0
   21.7804  -17.2529    0.0000 O   0  0  0  0  0  0  0  0  0  0  0  0
   24.6383  -17.2529    0.0000 O   0  0  0  0  0  0  0  0  0  0  0  0
   21.0659  -17.6654    0.0000 C   0  0  2  0  0  0  0  0  0  0  0  0
   21.0659  -18.4904    0.0000 C   0  0  1  0  0  0  0  0  0  0  0  0
   20.3514  -17.2529    0.0000 O   0  0  0  0  0  0  0  0  0  0  0  0
   20.3514  -18.9029    0.0000 C   0  0  2  0  0  0  0  0  0  0  0  0
   19.6370  -17.6654    0.0000 C   0  0  1  0  0  0  0  0  0  0  0  0
   19.6370  -18.4904    0.0000 C   0  0  2  0  0  0  0  0  0  0  0  0
   20.3514  -19.6584    0.0000 O   0  0  0  0  0  0  0  0  0  0  0  0
   18.9225  -18.9029    0.0000 O   0  0  0  0  0  0  0  0  0  0  0  0
   18.9225  -17.2530    0.0000 C   0  0  0  0  0  0  0  0  0  0  0  0
   18.2080  -17.6655    0.0000 O   0  0  0  0  0  0  0  0  0  0  0  0
   21.7804  -19.7280    0.0000 C   0  0  0  0  0  0  0  0  0  0  0  0
   21.0659  -20.1405    0.0000 O   0  0  0  0  0  0  0  0  0  0  0  0
   21.7804  -18.9030    0.0000 N   0  0  0  0  0  0  0  0  0  0  0  0
   22.4948  -20.1404    0.0000 C   0  0  0  0  0  0  0  0  0  0  0  0
   17.4935  -18.0779    0.0000 C   0  0  2  0  0  0  0  0  0  0  0  0
   17.4935  -18.9030    0.0000 C   0  0  0  0  0  0  0  0  0  0  0  0
   16.7791  -19.3155    0.0000 C   0  0  1  0  0  0  0  0  0  0  0  0
   16.0645  -18.9029    0.0000 C   0  0  2  0  0  0  0  0  0  0  0  0
   16.7791  -17.6654    0.0000 O   0  0  0  0  0  0  0  0  0  0  0  0
   16.0646  -18.0779    0.0000 C   0  0  1  0  0  0  0  0  0  0  0  0
   16.7911  -20.1851    0.0000 O   0  0  0  0  0  0  0  0  0  0  0  0
   15.4892  -20.3988    0.0000 C   0  0  0  0  0  0  0  0  0  0  0  0
   16.2534  -20.8312    0.0000 O   0  0  0  0  0  0  0  0  0  0  0  0
   15.4793  -19.5639    0.0000 N   0  0  0  0  0  0  0  0  0  0  0  0
   14.8641  -20.7914    0.0000 C   0  0  0  0  0  0  0  0  0  0  0  0
   16.0379  -17.2151    0.0000 H   0  0  0  0  0  0  0  0  0  0  0  0
   17.4936  -17.2529    0.0000 C   0  0  0  0  0  0  0  0  0  0  0  0
   16.7791  -16.8404    0.0000 O   0  0  0  0  0  0  0  0  0  0  0  0
   18.2081  -16.8405    0.0000 O   0  0  0  0  0  0  0  0  0  0  0  0
   15.1581  -18.0804    0.0000 C   0  0  1  0  0  0  0  0  0  0  0  0
   14.4436  -17.6679    0.0000 C   0  0  1  0  0  0  0  0  0  0  0  0
   13.7292  -18.0804    0.0000 C   0  0  0  0  0  0  0  0  0  0  0  0
   13.0147  -17.6679    0.0000 O   0  0  0  0  0  0  0  0  0  0  0  0
   14.4436  -16.8429    0.0000 O   0  0  0  0  0  0  0  0  0  0  0  0
   15.1581  -18.9054    0.0000 O   0  0  0  0  0  0  0  0  0  0  0  0
   22.4949  -16.0154    0.0000 C   0  0  0  0  0  0  0  0  0  0  0  0
  1  2  1  0  0  0  0
  1  3  2  0  0  0  0
  2  4  1  1  0  0  0
  2  5  1  0  0  0  0
  5  6  1  0  0  0  0
  7  1  1  0  0  0  0
  8  9  1  0  0  0  0
  8 10  1  0  0  0  0
  9 11  1  0  0  0  0
 10 12  1  0  0  0  0
 11 13  1  0  0  0  0
 12 13  1  0  0  0  0
  8  6  1  6  0  0  0
 11 14  1  1  0  0  0
 13 15  1  1  0  0  0
 12 16  1  1  0  0  0
 17 16  1  0  0  0  0
 19 18  2  0  0  0  0
 20 18  1  0  0  0  0
 21 18  1  0  0  0  0
  9 20  1  6  0  0  0
 24 23  1  0  0  0  0
 22 23  1  0  0  0  0
 25 24  1  0  0  0  0
 26 22  1  0  0  0  0
 27 25  1  0  0  0  0
 27 26  1  0  0  0  0
 24 28  1  6  0  0  0
 30 29  2  0  0  0  0
 31 29  1  0  0  0  0
 32 29  1  0  0  0  0
 25 31  1  1  0  0  0
 27 33  1  1  0  0  0
 22 17  1  6  0  0  0
 35 34  2  0  0  0  0
 36 34  1  0  0  0  0
 22 34  1  1  0  0  0
 27 37  1  0  0  0  0
 37 38  1  0  0  0  0
 38 39  1  0  0  0  0
 39 40  1  0  0  0  0
 38 41  1  1  0  0  0
 37 42  1  6  0  0  0
  5 43  1  0  0  0  0
M  END
> <ID>
CHEBI:53611

> <NAME>
O-[N-acetyl-alpha-neuraminyl-(2->6)-N-acetyl-alpha-D-galactosaminyl]-L-threonine

> <DEFINITION>
A non-proteinogenic L-α-amino acid that is N-acetyl-α-neuraminyl-(2→6)-N-acetyl-α-D-galactosamine linked via an α glycosidic bond to the O at position 3 of L-threonine.

> <STAR>
3

> <SYNONYM>
NeuAc(alpha->6)GalNAc(alpha1->O)Thr

> <IUPAC_NAME>
O-[(5-acetamido-3,5-dideoxy-D-glycero-alpha-D-galacto-nonulopyranosylonic acid)-(2->6)-2-acetamido-2-deoxy-alpha-D-galactopyranosyl]-L-threonine

> <FORMULA>
C23H39N3O16

> <MASS>
613.56630

> <MONOISOTOPIC_MASS>
613.23303

> <CHARGE>
0

> <SMILES>
[H][C@]1(O[C@@](C[C@H](O)[C@H]1NC(C)=O)(OC[C@H]1O[C@H](OC(C)[C@H](N)C(O)=O)[C@H](NC(C)=O)[C@@H](O)[C@H]1O)C(O)=O)[C@H](O)[C@H](O)CO

> <INCHI>
InChI=1S/C23H39N3O16/c1-7(13(24)20(35)36)40-21-15(26-9(3)29)18(34)17(33)12(41-21)6-39-23(22(37)38)4-10(30)14(25-8(2)28)19(42-23)16(32)11(31)5-27/h7,10-19,21,27,30-34H,4-6,24H2,1-3H3,(H,25,28)(H,26,29)(H,35,36)(H,37,38)/t7?,10-,11+,12+,13-,14+,15+,16+,17-,18+,19+,21-,23+/m0/s1

> <INCHIKEY>
ZHUSSJABBZXUFL-ZVYXXJCASA-N

> <PUBMED_CITATION>
19447147

$$$$

Marvin  12010913132D          

 22 23  0  0  1  0            999 V2000
    9.4005  -11.1450    0.0000 C   0  0  0  0  0  0  0  0  0  0  0  0
    9.4005  -11.9701    0.0000 C   0  0  0  0  0  0  0  0  0  0  0  0
    8.6860  -10.7325    0.0000 C   0  0  0  0  0  0  0  0  0  0  0  0
    8.6860  -12.3826    0.0000 C   0  0  0  0  0  0  0  0  0  0  0  0
    7.9716  -11.1450    0.0000 C   0  0  0  0  0  0  0  0  0  0  0  0
    7.9716  -11.9701    0.0000 C   0  0  0  0  0  0  0  0  0  0  0  0
   10.1150  -12.3826    0.0000 C   0  0  0  0  0  0  0  0  0  0  0  0
   10.8295  -11.9701    0.0000 C   0  0  0  0  0  0  0  0  0  0  0  0
   11.5440  -12.3826    0.0000 C   0  0  1  0  0  0  0  0  0  0  0  0
   12.2584  -11.9701    0.0000 C   0  0  0  0  0  0  0  0  0  0  0  0
   13.6874  -11.1450    0.0000 C   0  0  0  0  0  0  0  0  0  0  0  0
   12.9729  -10.7325    0.0000 C   0  0  0  0  0  0  0  0  0  0  0  0
   13.6874  -11.9701    0.0000 C   0  0  0  0  0  0  0  0  0  0  0  0
   12.2584  -11.1450    0.0000 C   0  0  0  0  0  0  0  0  0  0  0  0
   12.9729  -12.3826    0.0000 C   0  0  0  0  0  0  0  0  0  0  0  0
   11.5440  -13.2076    0.0000 C   0  0  1  0  0  0  0  0  0  0  0  0
   10.8295  -13.6201    0.0000 C   0  0  0  0  0  0  0  0  0  0  0  0
   10.1150  -13.2076    0.0000 O   0  0  0  0  0  0  0  0  0  0  0  0
   12.2584  -13.6201    0.0000 O   0  0  0  0  0  0  0  0  0  0  0  0
   14.4018  -10.7325    0.0000 O   0  0  0  0  0  0  0  0  0  0  0  0
    7.2571  -10.7325    0.0000 O   0  0  0  0  0  0  0  0  0  0  0  0
   14.4019  -12.3826    0.0000 O   0  0  0  0  0  0  0  0  0  0  0  0
  2  1  1  0  0  0  0
  3  1  2  0  0  0  0
  4  2  2  0  0  0  0
  5  3  1  0  0  0  0
  6  4  1  0  0  0  0
  6  5  2  0  0  0  0
  7  2  1  0  0  0  0
  8  7  2  0  0  0  0
  9  8  1  0  0  0  0
  9 10  1  1  0  0  0
 12 11  1  0  0  0  0
 13 11  2  0  0  0  0
 14 12  2  0  0  0  0
 15 13  1  0  0  0  0
 10 14  1  0  0  0  0
 10 15  2  0  0  0  0
 16  9  1  0  0  0  0
 17 16  1  0  0  0  0
 18 17  1  0  0  0  0
 16 19  1  6  0  0  0
 20 11  1  0  0  0  0
 21  5  1  0  0  0  0
 13 22  1  0  0  0  0
M  END
> <ID>
CHEBI:53644

> <NAME>
sequirin C

> <DEFINITION>
A norlignan that is a derivative of agatharesinol in which  the aromatic ring B has an additional hydroxy substituent ortho to the one present in the parent compound.

> <STAR>
3

> <SYNONYM>
sequirin-C

> <IUPAC_NAME>
4-[(1S,2E)-1-[(1S)-1,2-dihydroxyethyl]-3-(4-hydroxyphenyl)prop-2-en-1-yl]benzene-1,2-diol

> <FORMULA>
C17H18O5

> <MASS>
302.32180

> <MONOISOTOPIC_MASS>
302.11542

> <CHARGE>
0

> <SMILES>
OC[C@@H](O)[C@@H](\C=C\c1ccc(O)cc1)c1ccc(O)c(O)c1

> <INCHI>
InChI=1S/C17H18O5/c18-10-17(22)14(12-4-8-15(20)16(21)9-12)7-3-11-1-5-13(19)6-2-11/h1-9,14,17-22H,10H2/b7-3+/t14-,17+/m0/s1

> <INCHIKEY>
UWWISKPOVFKUES-SITIDLGXSA-N

> <BEILSTEIN_REGISTRY_NUMBER>
7354895

> <REAXYS_REGISTRY_NUMBER>
7354895

> <AGRICOLA_CITATION>
IND43826632

> <PUBMED_CITATION>
11371016; 11684179; 15124091

$$$$

Marvin  12010913172D          

 21 23  0  0  1  0            999 V2000
   12.7903  -13.7421    0.0000 C   0  0  2  0  0  0  0  0  0  0  0  0
   12.0759  -14.1546    0.0000 C   0  0  1  0  0  0  0  0  0  0  0  0
   12.7902  -12.9171    0.0000 C   0  0  0  0  0  0  0  0  0  0  0  0
   13.5049  -14.1546    0.0000 C   0  0  0  0  0  0  0  0  0  0  0  0
   12.0759  -14.9796    0.0000 C   0  0  0  0  0  0  0  0  0  0  0  0
   13.5047  -12.5046    0.0000 C   0  0  0  0  0  0  0  0  0  0  0  0
   12.0757  -12.5044    0.0000 C   0  0  0  0  0  0  0  0  0  0  0  0
   13.5048  -14.9796    0.0000 C   0  0  1  0  0  0  0  0  0  0  0  0
   12.7903  -15.3921    0.0000 O   0  0  0  0  0  0  0  0  0  0  0  0
   13.5047  -11.6795    0.0000 C   0  0  0  0  0  0  0  0  0  0  0  0
   12.0758  -11.6795    0.0000 C   0  0  0  0  0  0  0  0  0  0  0  0
   14.2192  -15.3921    0.0000 C   0  0  0  0  0  0  0  0  0  0  0  0
   12.7903  -11.2670    0.0000 C   0  0  0  0  0  0  0  0  0  0  0  0
   14.2192  -16.2171    0.0000 C   0  0  0  0  0  0  0  0  0  0  0  0
   14.9337  -14.9796    0.0000 C   0  0  0  0  0  0  0  0  0  0  0  0
   12.7904  -10.4420    0.0000 O   0  0  0  0  0  0  0  0  0  0  0  0
   14.9337  -16.6296    0.0000 C   0  0  0  0  0  0  0  0  0  0  0  0
   15.6482  -15.3921    0.0000 C   0  0  0  0  0  0  0  0  0  0  0  0
   15.6482  -16.2170    0.0000 C   0  0  0  0  0  0  0  0  0  0  0  0
   16.3627  -16.6295    0.0000 O   0  0  0  0  0  0  0  0  0  0  0  0
   11.3614  -13.7421    0.0000 O   0  0  0  0  0  0  0  0  0  0  0  0
  1  2  1  0  0  0  0
  1  4  1  0  0  0  0
  2  5  1  0  0  0  0
  3  6  2  0  0  0  0
  3  7  1  0  0  0  0
  4  8  1  0  0  0  0
  5  9  1  0  0  0  0
  6 10  1  0  0  0  0
  7 11  2  0  0  0  0
  8  9  1  0  0  0  0
 10 13  2  0  0  0  0
 11 13  1  0  0  0  0
 12 14  2  0  0  0  0
 12 15  1  0  0  0  0
 13 16  1  0  0  0  0
 14 17  1  0  0  0  0
 15 18  2  0  0  0  0
 17 19  2  0  0  0  0
 18 19  1  0  0  0  0
 19 20  1  0  0  0  0
  2 21  1  1  0  0  0
  1  3  1  6  0  0  0
  8 12  1  6  0  0  0
M  END
> <ID>
CHEBI:53645

> <NAME>
sugiresinol

> <DEFINITION>
A norlignan that is an isomer of agatharesinol in which the dihydroxypentene side chain is cyclised.

> <STAR>
3

> <SYNONYM>
sequirin-A; sequirin A; (3S)-tetrahydro-4alpha,6alpha-bis(4-hydroxyphenyl)-2H-pyran-3-ol; (-)-sugiresinol

> <IUPAC_NAME>
(1R)-1,5-anhydro-2,3-dideoxy-1,3-bis(4-hydroxyphenyl)-D-threo-pentitol

> <FORMULA>
C17H18O4

> <MASS>
286.32240

> <MONOISOTOPIC_MASS>
286.12051

> <CHARGE>
0

> <SMILES>
O[C@@H]1CO[C@H](C[C@H]1c1ccc(O)cc1)c1ccc(O)cc1

> <INCHI>
InChI=1S/C17H18O4/c18-13-5-1-11(2-6-13)15-9-17(21-10-16(15)20)12-3-7-14(19)8-4-12/h1-8,15-20H,9-10H2/t15-,16+,17+/m0/s1

> <INCHIKEY>
JQRWWSPNQHLXDY-GVDBMIGSSA-N

> <BEILSTEIN_REGISTRY_NUMBER>
33909

> <REAXYS_REGISTRY_NUMBER>
33909

> <PUBMED_CITATION>
11684179; 14993761; 15369328; 17191998

$$$$

Marvin  12010913292D          

 22 24  0  0  1  0            999 V2000
   10.9840   -5.1119    0.0000 C   0  0  2  0  0  0  0  0  0  0  0  0
   10.2695   -5.5244    0.0000 C   0  0  1  0  0  0  0  0  0  0  0  0
   10.9838   -4.2870    0.0000 C   0  0  0  0  0  0  0  0  0  0  0  0
   11.6985   -5.5244    0.0000 C   0  0  0  0  0  0  0  0  0  0  0  0
   10.2695   -6.3495    0.0000 C   0  0  0  0  0  0  0  0  0  0  0  0
   11.6983   -3.8745    0.0000 C   0  0  0  0  0  0  0  0  0  0  0  0
   10.2694   -3.8743    0.0000 C   0  0  0  0  0  0  0  0  0  0  0  0
   11.6984   -6.3495    0.0000 C   0  0  1  0  0  0  0  0  0  0  0  0
   10.9840   -6.7620    0.0000 O   0  0  0  0  0  0  0  0  0  0  0  0
   11.6983   -3.0494    0.0000 C   0  0  0  0  0  0  0  0  0  0  0  0
   10.2695   -3.0494    0.0000 C   0  0  0  0  0  0  0  0  0  0  0  0
   12.4128   -6.7620    0.0000 C   0  0  0  0  0  0  0  0  0  0  0  0
   10.9840   -2.6369    0.0000 C   0  0  0  0  0  0  0  0  0  0  0  0
   12.4128   -7.5869    0.0000 C   0  0  0  0  0  0  0  0  0  0  0  0
   13.1273   -6.3495    0.0000 C   0  0  0  0  0  0  0  0  0  0  0  0
   10.9840   -1.8119    0.0000 O   0  0  0  0  0  0  0  0  0  0  0  0
   13.1273   -7.9994    0.0000 C   0  0  0  0  0  0  0  0  0  0  0  0
   13.8418   -6.7620    0.0000 C   0  0  0  0  0  0  0  0  0  0  0  0
   13.8418   -7.5868    0.0000 C   0  0  0  0  0  0  0  0  0  0  0  0
   14.5562   -7.9993    0.0000 O   0  0  0  0  0  0  0  0  0  0  0  0
    9.5551   -5.1119    0.0000 O   0  0  0  0  0  0  0  0  0  0  0  0
    9.5550   -2.6369    0.0000 O   0  0  0  0  0  0  0  0  0  0  0  0
  1  2  1  0  0  0  0
  1  4  1  0  0  0  0
  2  5  1  0  0  0  0
  3  6  2  0  0  0  0
  3  7  1  0  0  0  0
  4  8  1  0  0  0  0
  5  9  1  0  0  0  0
  6 10  1  0  0  0  0
  7 11  2  0  0  0  0
  8  9  1  0  0  0  0
 10 13  2  0  0  0  0
 11 13  1  0  0  0  0
 12 14  2  0  0  0  0
 12 15  1  0  0  0  0
 13 16  1  0  0  0  0
 14 17  1  0  0  0  0
 15 18  2  0  0  0  0
 17 19  2  0  0  0  0
 18 19  1  0  0  0  0
 19 20  1  0  0  0  0
  2 21  1  1  0  0  0
  1  3  1  6  0  0  0
  8 12  1  6  0  0  0
 11 22  1  0  0  0  0
M  END
> <ID>
CHEBI:53646

> <NAME>
hydroxysugiresinol

> <DEFINITION>
A norlignan that is a derivative of sugiresinol in which the aromatic ring B has an additional hydroxy substituent.

> <STAR>
3

> <SYNONYM>
sequirin-B; sequirin B; 4-[(2R)-3,4,5,6-tetrahydro-5alpha-hydroxy-2-(4-hydroxyphenyl)-2H-pyran-4beta-yl]-1,2-benzenediol

> <IUPAC_NAME>
(1R)-1,5-anhydro-2,3-dideoxy-3-(3,4-dihydroxyphenyl)-1-(4-hydroxyphenyl)-D-threo-pentitol

> <FORMULA>
C17H18O5

> <MASS>
302.32180

> <MONOISOTOPIC_MASS>
302.11542

> <CHARGE>
0

> <SMILES>
O[C@@H]1CO[C@H](C[C@H]1c1ccc(O)c(O)c1)c1ccc(O)cc1

> <INCHI>
InChI=1S/C17H18O5/c18-12-4-1-10(2-5-12)17-8-13(16(21)9-22-17)11-3-6-14(19)15(20)7-11/h1-7,13,16-21H,8-9H2/t13-,16+,17+/m0/s1

> <INCHIKEY>
KTBMETYOQLNVNV-IAOVAPTHSA-N

> <BEILSTEIN_REGISTRY_NUMBER>
7272673

> <REAXYS_REGISTRY_NUMBER>
7272673

> <PUBMED_CITATION>
11684179

$$$$

Marvin  06041312572D          

 16 16  0  0  0  0            999 V2000
   15.5695  -21.5916    0.0000 C   0  0  0  0  0  0  0  0  0  0  0  0
   14.8550  -21.1791    0.0000 C   0  0  0  0  0  0  0  0  0  0  0  0
   15.5695  -22.4166    0.0000 C   0  0  0  0  0  0  0  0  0  0  0  0
   14.1406  -21.5916    0.0000 C   0  0  0  0  0  0  0  0  0  0  0  0
   14.8551  -22.8291    0.0000 C   0  0  0  0  0  0  0  0  0  0  0  0
   14.1406  -22.4167    0.0000 C   0  0  0  0  0  0  0  0  0  0  0  0
   14.8551  -23.6541    0.0000 N   0  3  0  0  0  0  0  0  0  0  0  0
   15.5696  -24.0666    0.0000 O   0  5  0  0  0  0  0  0  0  0  0  0
   14.1406  -24.0666    0.0000 O   0  0  0  0  0  0  0  0  0  0  0  0
   13.4261  -21.1791    0.0000 N   0  3  0  0  0  0  0  0  0  0  0  0
   12.7116  -21.5917    0.0000 O   0  5  0  0  0  0  0  0  0  0  0  0
   13.4260  -20.3541    0.0000 O   0  0  0  0  0  0  0  0  0  0  0  0
   16.2839  -21.1790    0.0000 C   0  0  0  0  0  0  0  0  0  0  0  0
   16.9984  -21.5915    0.0000 O   0  0  0  0  0  0  0  0  0  0  0  0
   16.2839  -20.3539    0.0000 O   0  0  0  0  0  0  0  0  0  0  0  0
   16.2840  -22.8291    0.0000 O   0  0  0  0  0  0  0  0  0  0  0  0
  2  1  1  0  0  0  0
  3  1  2  0  0  0  0
  4  2  2  0  0  0  0
  5  3  1  0  0  0  0
  6  4  1  0  0  0  0
  6  5  2  0  0  0  0
  8  7  1  0  0  0  0
  9  7  2  0  0  0  0
  5  7  1  0  0  0  0
 11 10  1  0  0  0  0
 12 10  2  0  0  0  0
  4 10  1  0  0  0  0
 14 13  1  0  0  0  0
 15 13  2  0  0  0  0
  1 13  1  0  0  0  0
  3 16  1  0  0  0  0
M  CHG  4   7   1   8  -1  10   1  11  -1
M  END
> <ID>
CHEBI:53648

> <NAME>
3,5-dinitrosalicylic acid

> <DEFINITION>
A monohydroxybenzoic acid consisting of 2-hydroxybenzoic acid having nitro substituents at the 3- and 5-positions. It is used in colorimetric testing for the presence of free carbonyl groups (C=O) in reducing sugars.

> <STAR>
3

> <SECONDARY_ID>
CHEBI:1409

> <SYNONYM>
o-DNCP; o-dinitrocarboxylphenol; DNSA; DNS; 3,5-Dinitrosalicylic acid; 3,5-Dinitrosalicylate; 3,5-dinitro-2-salicylic acid; 3,5-Dinitro-2-hydroxybenzoic acid

> <IUPAC_NAME>
2-hydroxy-3,5-dinitrobenzoic acid

> <FORMULA>
C7H4N2O7

> <MASS>
228.11590

> <MONOISOTOPIC_MASS>
228.00185

> <CHARGE>
0

> <SMILES>
OC(=O)c1cc(cc(c1O)[N+]([O-])=O)[N+]([O-])=O

> <INCHI>
InChI=1S/C7H4N2O7/c10-6-4(7(11)12)1-3(8(13)14)2-5(6)9(15)16/h1-2,10H,(H,11,12)

> <INCHIKEY>
LWFUFLREGJMOIZ-UHFFFAOYSA-N

> <BEILSTEIN_REGISTRY_NUMBER>
2220661

> <CAS_REGISTRY_NUMBER>
609-99-4

> <GMELIN_REGISTRY_NUMBER>
5309

> <REAXYS_REGISTRY_NUMBER>
2220661

> <CHEMIDPLUS>
609-99-4

> <KEGG_COMPOUND_ACCESSION>
C11319

> <NIST_CHEMISTRY_WEBBOOK>
609-99-4

> <WIKIPEDIA_ACCESSION>
3,5-Dinitrosalicylic acid

> <PUBMED_CITATION>
10919335; 1650428; 23103512; 24612932; 6182245

$$$$
00073944H
  Marvin  12010912112D          

 12 12  0  0  0  0            999 V2000
    0.5780    0.0001    0.0000 C   0  0  0  0  0  0  0  0  0  0  0  0
    1.2923   -0.4122    0.0000 C   0  0  0  0  0  0  0  0  0  0  0  0
    0.5780    0.8251    0.0000 C   0  0  0  0  0  0  0  0  0  0  0  0
   -0.1364   -0.4122    0.0000 O   0  0  0  0  0  0  0  0  0  0  0  0
    2.0068    0.0002    0.0000 C   0  0  0  0  0  0  0  0  0  0  0  0
    1.2923   -1.2373    0.0000 Cl  0  0  0  0  0  0  0  0  0  0  0  0
    1.2925    1.2376    0.0000 C   0  0  0  0  0  0  0  0  0  0  0  0
   -0.1363    1.2376    0.0000 Cl  0  0  0  0  0  0  0  0  0  0  0  0
    2.0070    0.8249    0.0000 C   0  0  0  0  0  0  0  0  0  0  0  0
    2.7214    1.2373    0.0000 C   0  0  0  0  0  0  0  0  0  0  0  0
    2.7214    2.0624    0.0000 O   0  0  0  0  0  0  0  0  0  0  0  0
    3.4356    0.8250    0.0000 O   0  0  0  0  0  0  0  0  0  0  0  0
  1  2  1  0  0  0  0
  1  3  2  0  0  0  0
  1  4  1  0  0  0  0
  2  5  2  0  0  0  0
  2  6  1  0  0  0  0
  3  7  1  0  0  0  0
  3  8  1  0  0  0  0
  5  9  1  0  0  0  0
  7  9  2  0  0  0  0
  9 10  1  0  0  0  0
 10 11  2  0  0  0  0
 10 12  1  0  0  0  0
M  END
> <ID>
CHEBI:53685

> <NAME>
3,5-dichloro-4-hydroxybenzoic acid

> <DEFINITION>
A derivative of p-salicylic acid with chloro- substituents at C-3 and C-5 of the benzene ring.

> <STAR>
3

> <SYNONYM>
DiClHBz; 3,5-dichloro-p-salicylic acid

> <IUPAC_NAME>
3,5-dichloro-4-hydroxybenzoic acid

> <FORMULA>
C7H4Cl2O3

> <MASS>
207.01100

> <MONOISOTOPIC_MASS>
205.95375

> <CHARGE>
0

> <SMILES>
OC(=O)c1cc(Cl)c(O)c(Cl)c1

> <INCHI>
InChI=1S/C7H4Cl2O3/c8-4-1-3(7(11)12)2-5(9)6(4)10/h1-2,10H,(H,11,12)

> <INCHIKEY>
AULKDLUOQCUNOK-UHFFFAOYSA-N

> <PUBMED_CITATION>
15589368

$$$$

Marvin  11230909452D          

 14 14  0  0  0  0            999 V2000
   -3.2187    1.3875    0.0000 O   0  0  0  0  0  0  0  0  0  0  0  0
   -3.9332    0.9750    0.0000 C   0  0  1  0  0  0  0  0  0  0  0  0
   -2.5043    0.9750    0.0000 C   0  0  2  0  0  0  0  0  0  0  0  0
   -3.2187   -0.2625    0.0000 C   0  0  2  0  0  0  0  0  0  0  0  0
   -3.2187   -1.0875    0.0000 O   0  0  0  0  0  0  0  0  0  0  0  0
   -2.5043    0.1500    0.0000 C   0  0  1  0  0  0  0  0  0  0  0  0
   -3.9332    0.1500    0.0000 C   0  0  2  0  0  0  0  0  0  0  0  0
   -4.6477   -0.2625    0.0000 O   0  0  0  0  0  0  0  0  0  0  0  0
   -1.7898   -0.2625    0.0000 O   0  0  0  0  0  0  0  0  0  0  0  0
   -5.3622    0.9750    0.0000 O   0  0  0  0  0  0  0  0  0  0  0  0
   -1.7898    1.3875    0.0000 O   0  0  0  0  0  0  0  0  0  0  0  0
   -1.0753    0.9750    0.0000 C   0  0  0  0  0  0  0  0  0  0  0  0
   -4.6477    1.3875    0.0000 C   0  0  0  0  0  0  0  0  0  0  0  0
   -4.6477    2.2125    0.0000 O   0  0  0  0  0  0  0  0  0  0  0  0
  1  2  1  0  0  0  0
  1  3  1  0  0  0  0
  2  7  1  0  0  0  0
  7  4  1  0  0  0  0
  4  6  1  0  0  0  0
  6  3  1  0  0  0  0
  2 13  1  1  0  0  0
  3 11  1  1  0  0  0
  4  5  1  1  0  0  0
  6  9  1  6  0  0  0
  7  8  1  6  0  0  0
 13 10  1  0  0  0  0
 11 12  1  0  0  0  0
 13 14  2  0  0  0  0
M  END
> <ID>
CHEBI:53688

> <NAME>
methyl beta-D-glucuronoside

> <DEFINITION>
A derivative of β-D-glucuronic acid in which a methyl group is present at the anomeric position.

> <STAR>
3

> <SYNONYM>
O(1)-methyl-beta-D-glucopyranuronic acid; Methylglucopyranosiduronic acid; Methyl-beta-D-glucopyranosiduronic acid; Methyl beta-glucuronide; methyl beta-D-glucopyranosiduronic acid

> <IUPAC_NAME>
methyl beta-D-glucuronoside

> <FORMULA>
C7H12O7

> <MASS>
208.16600

> <MONOISOTOPIC_MASS>
208.05830

> <CHARGE>
0

> <SMILES>
CO[C@@H]1O[C@@H]([C@@H](O)[C@H](O)[C@H]1O)C(O)=O

> <INCHI>
InChI=1S/C7H12O7/c1-13-7-4(10)2(8)3(9)5(14-7)6(11)12/h2-5,7-10H,1H3,(H,11,12)/t2-,3-,4+,5-,7+/m0/s1

> <INCHIKEY>
BOFXVYGDIRCHEQ-GHQVIJFQSA-N

> <CAS_REGISTRY_NUMBER>
4356-84-7

> <REAXYS_REGISTRY_NUMBER>
84757

> <CHEMIDPLUS>
4356-84-7

> <PUBMED_CITATION>
16937053

$$$$

Marvin  11230910062D          

 35 37  0  0  1  0            999 V2000
    8.9876   -8.9533    0.0000 C   0  0  1  0  0  0  0  0  0  0  0  0
    9.7020   -9.3658    0.0000 C   0  0  1  0  0  0  0  0  0  0  0  0
    8.2730   -9.3659    0.0000 O   0  0  0  0  0  0  0  0  0  0  0  0
    9.7020  -10.1909    0.0000 C   0  0  2  0  0  0  0  0  0  0  0  0
    8.2730  -10.1909    0.0000 C   0  0  1  0  0  0  0  0  0  0  0  0
    8.9875  -10.6034    0.0000 C   0  0  1  0  0  0  0  0  0  0  0  0
   10.4165   -8.9534    0.0000 O   0  0  0  0  0  0  0  0  0  0  0  0
   10.4164  -10.6034    0.0000 O   0  0  0  0  0  0  0  0  0  0  0  0
    8.9875  -11.4284    0.0000 O   0  0  0  0  0  0  0  0  0  0  0  0
    7.5586  -10.6033    0.0000 C   0  0  0  0  0  0  0  0  0  0  0  0
    7.5586  -11.4283    0.0000 O   0  0  0  0  0  0  0  0  0  0  0  0
    6.8441  -10.1908    0.0000 O   0  0  0  0  0  0  0  0  0  0  0  0
    8.9876   -8.1283    0.0000 O   0  0  0  0  0  0  0  0  0  0  0  0
    6.8442   -4.4157    0.0000 C   0  0  0  0  0  0  0  0  0  0  0  0
    6.8442   -5.2407    0.0000 C   0  0  1  0  0  0  0  0  0  0  0  0
    6.1297   -4.0032    0.0000 O   0  0  0  0  0  0  0  0  0  0  0  0
    6.1297   -5.6532    0.0000 C   0  0  1  0  0  0  0  0  0  0  0  0
    5.4152   -4.4157    0.0000 C   0  0  2  0  0  0  0  0  0  0  0  0
    5.4152   -5.2407    0.0000 C   0  0  2  0  0  0  0  0  0  0  0  0
    7.5587   -4.0032    0.0000 O   0  0  0  0  0  0  0  0  0  0  0  0
    7.5587   -5.6532    0.0000 O   0  0  0  0  0  0  0  0  0  0  0  0
    6.1296   -6.4782    0.0000 O   0  0  0  0  0  0  0  0  0  0  0  0
    4.7007   -5.6532    0.0000 O   0  0  0  0  0  0  0  0  0  0  0  0
    4.7007   -4.0032    0.0000 C   0  0  0  0  0  0  0  0  0  0  0  0
    7.5587   -6.4782    0.0000 C   0  0  2  0  0  0  0  0  0  0  0  0
    8.2731   -6.8907    0.0000 C   0  0  1  0  0  0  0  0  0  0  0  0
    6.8441   -6.8908    0.0000 O   0  0  0  0  0  0  0  0  0  0  0  0
    8.2731   -7.7158    0.0000 C   0  0  2  0  0  0  0  0  0  0  0  0
    6.8441   -7.7157    0.0000 C   0  0  1  0  0  0  0  0  0  0  0  0
    7.5586   -8.1282    0.0000 C   0  0  2  0  0  0  0  0  0  0  0  0
    8.9876   -6.4783    0.0000 O   0  0  0  0  0  0  0  0  0  0  0  0
    7.5586   -8.9533    0.0000 O   0  0  0  0  0  0  0  0  0  0  0  0
    6.1297   -8.1282    0.0000 C   0  0  0  0  0  0  0  0  0  0  0  0
    6.1297   -8.9533    0.0000 O   0  0  0  0  0  0  0  0  0  0  0  0
    5.4152   -7.7157    0.0000 O   0  0  0  0  0  0  0  0  0  0  0  0
  1  2  1  0  0  0  0
  1  3  1  0  0  0  0
  2  4  1  0  0  0  0
  3  5  1  0  0  0  0
  4  6  1  0  0  0  0
  5  6  1  0  0  0  0
  2  7  1  6  0  0  0
  4  8  1  1  0  0  0
  6  9  1  6  0  0  0
  5 10  1  1  0  0  0
 11 10  2  0  0  0  0
 10 12  1  0  0  0  0
  1 13  1  1  0  0  0
 14 15  1  0  0  0  0
 14 16  1  0  0  0  0
 15 17  1  0  0  0  0
 16 18  1  0  0  0  0
 17 19  1  0  0  0  0
 18 19  1  0  0  0  0
 14 20  1  0  0  0  0
 15 21  1  6  0  0  0
 17 22  1  6  0  0  0
 19 23  1  1  0  0  0
 18 24  1  6  0  0  0
 25 26  1  0  0  0  0
 25 27  1  0  0  0  0
 26 28  1  0  0  0  0
 27 29  1  0  0  0  0
 28 30  1  0  0  0  0
 29 30  1  0  0  0  0
 25 21  1  6  0  0  0
 26 31  1  6  0  0  0
 28 13  1  1  0  0  0
 30 32  1  1  0  0  0
 29 33  1  1  0  0  0
 34 33  2  0  0  0  0
 33 35  1  0  0  0  0
M  END
> <ID>
CHEBI:53690

> <NAME>
beta-D-GlcpA-(1->3)-alpha-D-GalpA-(1->2)-L-Rhap

> <DEFINITION>
A trisaccharide comprising D-glucuronic acid, D-galacturonic acid and 6-deoxy-L-rhamnose residues, linked sequentially (1→3) and (1→2).

> <STAR>
3

> <SYNONYM>
O-beta-(D-glucopyranosyluronic acid)-(1->3)-O-alpha-(D-galactopyranosyluronic acid)-(1->2)-L-rhamnopyranose; beta-D-glucuronosyl-(1->3)-alpha-D-galacturonosyl-(1->2)-L-rhamnose; beta-D-glucuronosyl-(1->3)-alpha-D-galacturonosyl-(1->2)-6-deoxy-L-mannose; beta-D-GlcA-(1->3)-alpha-D-GalA-(1->2)-L-Rha

> <IUPAC_NAME>
beta-D-glucopyranuronosyl-(1->3)-alpha-D-galactopyranuronosyl-(1->2)-6-deoxy-L-mannopyranose

> <FORMULA>
C18H28O17

> <MASS>
516.40470

> <MONOISOTOPIC_MASS>
516.13265

> <CHARGE>
0

> <SMILES>
C[C@@H]1OC(O)[C@H](O[C@H]2O[C@@H]([C@H](O)[C@H](O[C@@H]3O[C@@H]([C@@H](O)[C@H](O)[C@H]3O)C(O)=O)[C@H]2O)C(O)=O)[C@H](O)[C@H]1O

> <INCHI>
InChI=1S/C18H28O17/c1-2-3(19)5(21)13(16(30)31-2)35-18-9(25)10(8(24)12(34-18)15(28)29)32-17-7(23)4(20)6(22)11(33-17)14(26)27/h2-13,16-25,30H,1H3,(H,26,27)(H,28,29)/t2-,3-,4-,5+,6-,7+,8+,9+,10-,11-,12-,13+,16?,17+,18+/m0/s1

> <INCHIKEY>
ZQXWNXNNCNMCTA-ZYFRMAFHSA-N

> <REAXYS_REGISTRY_NUMBER>
5786279

> <PUBMED_CITATION>
16937053

$$$$

Marvin  11300910422D          

 19 20  0  0  0  0            999 V2000
   13.0381   -5.5043    0.0000 C   0  0  0  0  0  0  0  0  0  0  0  0
   13.0381   -6.3293    0.0000 C   0  0  0  0  0  0  0  0  0  0  0  0
   12.3220   -6.7418    0.0000 C   0  0  0  0  0  0  0  0  0  0  0  0
   11.6100   -6.3293    0.0000 C   0  0  0  0  0  0  0  0  0  0  0  0
   11.6100   -5.5043    0.0000 C   0  0  0  0  0  0  0  0  0  0  0  0
   12.3220   -5.0918    0.0000 C   0  0  0  0  0  0  0  0  0  0  0  0
   10.8952   -5.0925    0.0000 S   0  0  0  0  0  0  0  0  0  0  0  0
   10.1811   -5.5054    0.0000 N   0  0  0  0  0  0  0  0  0  0  0  0
    9.4662   -5.0935    0.0000 C   0  0  0  0  0  0  0  0  0  0  0  0
    8.7542   -5.5067    0.0000 N   0  0  0  0  0  0  0  0  0  0  0  0
    8.0395   -5.0948    0.0000 C   0  0  0  0  0  0  0  0  0  0  0  0
    8.0388   -4.2697    0.0000 C   0  0  0  0  0  0  0  0  0  0  0  0
    8.7530   -3.8566    0.0000 C   0  0  0  0  0  0  0  0  0  0  0  0
    9.4678   -4.2686    0.0000 N   0  0  0  0  0  0  0  0  0  0  0  0
   13.7525   -6.7423    0.0000 N   0  0  0  0  0  0  0  0  0  0  0  0
   11.3077   -4.3780    0.0000 O   0  0  0  0  0  0  0  0  0  0  0  0
   10.4827   -4.3780    0.0000 O   0  0  0  0  0  0  0  0  0  0  0  0
    7.3240   -3.8578    0.0000 O   0  0  0  0  0  0  0  0  0  0  0  0
    7.3233   -3.0328    0.0000 C   0  0  0  0  0  0  0  0  0  0  0  0
  3  4  1  0  0  0  0
  4  5  2  0  0  0  0
  8  9  1  0  0  0  0
  5  6  1  0  0  0  0
  6  1  2  0  0  0  0
  5  7  1  0  0  0  0
  1  2  1  0  0  0  0
  9 10  2  0  0  0  0
 10 11  1  0  0  0  0
 11 12  2  0  0  0  0
 12 13  1  0  0  0  0
 13 14  2  0  0  0  0
 14  9  1  0  0  0  0
  7  8  1  0  0  0  0
  2  3  2  0  0  0  0
  2 15  1  0  0  0  0
 17  7  2  0  0  0  0
  7 16  2  0  0  0  0
 12 18  1  0  0  0  0
 18 19  1  0  0  0  0
M  END
> <ID>
CHEBI:53727

> <NAME>
sulfamethoxydiazine

> <DEFINITION>
A sulfonamide consisting of pyrimidine having a methoxy substituent at the 5-position and a 4-aminobenzenesulfonamido group at the 2-position.

> <STAR>
3

> <SYNONYM>
Sulphamethoxydiazine; Sulphameter; Sulfamethoxypyrimidine; Sulfamethoxine; sulfamethoxidiazine; Sulfameter; Sulfa-5-methoxypyrimidine; Solfametossidiazina; N(1)-(5-Methoxy-2-pyrimidinyl)sulfanilamide; 5-Methoxysulfadiazine; 5-Methoxy-2-sulfanilamidopyrimidine; 4-Amino-N-(5-methoxy-2-pyrimidinyl)benzenesulfonamide; 2-Sulfanilamido-5-methoxypyrimidine; 2-Sulfanilamido-5-methoxypyrimidin; 2-(4-Aminobenzenesulfonamido)-5-methoxypyrimidine

> <IUPAC_NAME>
4-amino-N-(5-methoxypyrimidin-2-yl)benzenesulfonamide

> <INN>
sulfametoxydiazinum; sulfametoxydiazine; sulfametoxidiazina

> <FORMULA>
C11H12N4O3S

> <MASS>
280.30300

> <MONOISOTOPIC_MASS>
280.06301

> <CHARGE>
0

> <SMILES>
COc1cnc(NS(=O)(=O)c2ccc(N)cc2)nc1

> <INCHI>
InChI=1S/C11H12N4O3S/c1-18-9-6-13-11(14-7-9)15-19(16,17)10-4-2-8(12)3-5-10/h2-7H,12H2,1H3,(H,13,14,15)

> <INCHIKEY>
GPTONYMQFTZPKC-UHFFFAOYSA-N

> <BEILSTEIN_REGISTRY_NUMBER>
621130

> <CAS_REGISTRY_NUMBER>
651-06-9

> <GMELIN_REGISTRY_NUMBER>
2615207

> <REAXYS_REGISTRY_NUMBER>
621130

> <CHEMIDPLUS>
651-06-9

> <KEGG_DRUG_ACCESSION>
D02517

> <LINCS_ACCESSION>
LSM-6683

> <NIST_CHEMISTRY_WEBBOOK>
651-06-9

> <WIKIPEDIA_ACCESSION>
Sulfameter

> <PUBMED_CITATION>
11431418

$$$$

Marvin  12080911452D          

 25 27  0  0  0  0            999 V2000
   -1.3554    1.0018    0.0000 C   0  0  0  0  0  0  0  0  0  0  0  0
   -2.0698    0.5893    0.0000 C   0  0  0  0  0  0  0  0  0  0  0  0
   -2.0698   -0.2357    0.0000 C   0  0  0  0  0  0  0  0  0  0  0  0
   -1.3554   -0.6482    0.0000 N   0  0  0  0  0  0  0  0  0  0  0  0
   -0.6409   -0.2357    0.0000 C   0  0  0  0  0  0  0  0  0  0  0  0
   -0.6409    0.5893    0.0000 C   0  0  0  0  0  0  0  0  0  0  0  0
   -1.3554    1.8268    0.0000 N   0  0  0  0  0  0  0  0  0  0  0  0
   -0.6409    2.2393    0.0000 C   0  0  0  0  0  0  0  0  0  0  0  0
    0.0736    3.4768    0.0000 C   0  0  0  0  0  0  0  0  0  0  0  0
   -0.6409    3.0643    0.0000 C   0  0  0  0  0  0  0  0  0  0  0  0
    0.0736    1.8268    0.0000 C   0  0  0  0  0  0  0  0  0  0  0  0
    0.7880    2.2393    0.0000 C   0  0  0  0  0  0  0  0  0  0  0  0
    0.7880    3.0643    0.0000 C   0  0  0  0  0  0  0  0  0  0  0  0
   -2.7843    1.0018    0.0000 C   0  0  0  0  0  0  0  0  0  0  0  0
   -1.3554   -1.4732    0.0000 C   0  0  0  0  0  0  0  0  0  0  0  0
   -0.6409   -1.8857    0.0000 C   0  0  0  0  0  0  0  0  0  0  0  0
   -0.6409   -2.7107    0.0000 C   0  0  0  0  0  0  0  0  0  0  0  0
   -1.3083   -3.1957    0.0000 S   0  0  0  0  0  0  0  0  0  0  0  0
   -1.0534   -3.9802    0.0000 C   0  0  0  0  0  0  0  0  0  0  0  0
   -0.2284   -3.9802    0.0000 C   0  0  0  0  0  0  0  0  0  0  0  0
    0.0265   -3.1957    0.0000 C   0  0  0  0  0  0  0  0  0  0  0  0
   -2.0698    2.2393    0.0000 C   0  0  0  0  0  0  0  0  0  0  0  0
   -2.0698    3.0643    0.0000 O   0  0  0  0  0  0  0  0  0  0  0  0
   -2.7843    1.8268    0.0000 C   0  0  0  0  0  0  0  0  0  0  0  0
   -3.4988    2.2393    0.0000 C   0  0  0  0  0  0  0  0  0  0  0  0
  1  2  1  0  0  0  0
  1  6  1  0  0  0  0
  2  3  1  0  0  0  0
  3  4  1  0  0  0  0
  4  5  1  0  0  0  0
  5  6  1  0  0  0  0
  1  7  1  0  0  0  0
  7  8  1  0  0  0  0
 10  8  2  0  0  0  0
  8 11  1  0  0  0  0
  9 10  1  0  0  0  0
  9 13  2  0  0  0  0
 11 12  2  0  0  0  0
 12 13  1  0  0  0  0
  2 14  1  0  0  0  0
  4 15  1  0  0  0  0
 15 16  1  0  0  0  0
 16 17  1  0  0  0  0
 17 18  1  0  0  0  0
 17 21  2  0  0  0  0
 18 19  1  0  0  0  0
 19 20  2  0  0  0  0
 20 21  1  0  0  0  0
  7 22  1  0  0  0  0
 22 23  2  0  0  0  0
 22 24  1  0  0  0  0
 24 25  1  0  0  0  0
M  END
> <ID>
CHEBI:53763

> <NAME>
3-methylthiofentanyl

> <DEFINITION>
A piperidine compound having a (2-thienyl)ethyl substituent at the 1-position, a methyl group at the 3-position and an N-phenylpropanamido group at the 4-position.

> <STAR>
3

> <SYNONYM>
N-(3-Methyl-1-(2-thienyl)ethyl-4-piperidinyl)-N-phenylpropanamide; 3-Methyl-thiofentanyl

> <IUPAC_NAME>
N-{3-methyl-1-[2-(2-thienyl)ethyl]piperidin-4-yl}-N-phenylpropanamide

> <FORMULA>
C21H28N2OS

> <MASS>
356.52500

> <MONOISOTOPIC_MASS>
356.19223

> <CHARGE>
0

> <SMILES>
CCC(=O)N(C1CCN(CCc2cccs2)CC1C)c1ccccc1

> <INCHI>
InChI=1S/C21H28N2OS/c1-3-21(24)23(18-8-5-4-6-9-18)20-12-14-22(16-17(20)2)13-11-19-10-7-15-25-19/h4-10,15,17,20H,3,11-14,16H2,1-2H3

> <INCHIKEY>
SRARDYUHGVMEQI-UHFFFAOYSA-N

> <CAS_REGISTRY_NUMBER>
86052-04-2

> <CHEMIDPLUS>
86052-04-2

> <DRUGBANK_ACCESSION>
DB01439

> <PUBMED_CITATION>
16621415

$$$$

Marvin  12110915422D          

 14 14  0  0  0  0            999 V2000
   11.4733   -8.9566    0.0000 C   0  0  0  0  0  0  0  0  0  0  0  0
   11.4733   -9.7775    0.0000 O   0  0  0  0  0  0  0  0  0  0  0  0
   12.1801   -8.5234    0.0000 O   0  0  0  0  0  0  0  0  0  0  0  0
   10.7435   -8.5234    0.0000 C   0  0  0  0  0  0  0  0  0  0  0  0
   10.7435   -7.7024    0.0000 C   0  0  0  0  0  0  0  0  0  0  0  0
   11.4733   -7.2920    0.0000 C   0  0  0  0  0  0  0  0  0  0  0  0
   10.0367   -7.2920    0.0000 C   0  0  0  0  0  0  0  0  0  0  0  0
   11.4733   -6.4710    0.0000 C   0  0  0  0  0  0  0  0  0  0  0  0
   10.0367   -6.4710    0.0000 C   0  0  0  0  0  0  0  0  0  0  0  0
   10.7435   -6.0377    0.0000 C   0  0  0  0  0  0  0  0  0  0  0  0
   10.7435   -5.2168    0.0000 O   0  0  0  0  0  0  0  0  0  0  0  0
   12.1801   -6.0377    0.0000 N   0  3  0  0  0  0  0  0  0  0  0  0
   12.1801   -5.2168    0.0000 O   0  5  0  0  0  0  0  0  0  0  0  0
   12.9099   -6.4710    0.0000 O   0  0  0  0  0  0  0  0  0  0  0  0
  2  1  2  0  0  0  0
  3  1  1  0  0  0  0
  4  1  1  0  0  0  0
  5  4  1  0  0  0  0
  6  5  2  0  0  0  0
  7  5  1  0  0  0  0
  8  6  1  0  0  0  0
  9  7  2  0  0  0  0
 10  8  2  0  0  0  0
 12  8  1  0  0  0  0
 10  9  1  0  0  0  0
 11 10  1  0  0  0  0
 13 12  1  0  0  0  0
 14 12  2  0  0  0  0
M  CHG  2  12   1  13  -1
M  END
> <ID>
CHEBI:546274

> <NAME>
(4-hydroxy-3-nitrophenyl)acetic acid

> <DEFINITION>
A monocarboxylic acid that is acetic acid carrying a 2-hydroxy-3-nitrophenyl substituent at C-2.

> <STAR>
3

> <SECONDARY_ID>
CHEBI:44475

> <SYNONYM>
NO2HPA; 4-hydroxy-3-nitrophenylacetic acid; 2-(4-hydroxy-3-nitrophenyl)acetic acid; 2-(4-HYDROXY-3-NITROPHENYL)ACETIC ACID

> <IUPAC_NAME>
(4-hydroxy-3-nitrophenyl)acetic acid

> <FORMULA>
C8H7NO5

> <MASS>
197.14490

> <MONOISOTOPIC_MASS>
197.03242

> <CHARGE>
0

> <SMILES>
OC(=O)Cc1ccc(O)c(c1)[N+]([O-])=O

> <INCHI>
InChI=1S/C8H7NO5/c10-7-2-1-5(4-8(11)12)3-6(7)9(13)14/h1-3,10H,4H2,(H,11,12)

> <INCHIKEY>
QBHBHOSRLDPIHG-UHFFFAOYSA-N

> <REAXYS_REGISTRY_NUMBER>
2696044

> <DRUGBANK_ACCESSION>
DB08294

> <PDBECHEM_ACCESSION>
NPA

> <PUBMED_CITATION>
11997029; 14687937; 24383944; 6787594; 7765721; 8702403

$$$$

Marvin  06291113512D          

 26 27  0  0  1  0            999 V2000
    8.6076   -9.3235    0.0000 C   0  0  0  0  0  0  0  0  0  0  0  0
    8.6076  -10.1484    0.0000 C   0  0  1  0  0  0  0  0  0  0  0  0
    7.8931   -8.9109    0.0000 O   0  0  0  0  0  0  0  0  0  0  0  0
    7.8931  -10.5609    0.0000 C   0  0  2  0  0  0  0  0  0  0  0  0
    7.1786   -9.3235    0.0000 C   0  0  1  0  0  0  0  0  0  0  0  0
    7.1786  -10.1484    0.0000 C   0  0  2  0  0  0  0  0  0  0  0  0
    7.8931  -11.3859    0.0000 O   0  0  0  0  0  0  0  0  0  0  0  0
    6.4641  -10.5609    0.0000 O   0  0  0  0  0  0  0  0  0  0  0  0
    6.4641   -8.9109    0.0000 C   0  0  0  0  0  0  0  0  0  0  0  0
    5.7496   -9.3235    0.0000 O   0  0  0  0  0  0  0  0  0  0  0  0
    7.1786  -11.7984    0.0000 C   0  0  1  0  0  0  0  0  0  0  0  0
    7.1786  -12.6234    0.0000 C   0  0  1  0  0  0  0  0  0  0  0  0
    6.4641  -11.3859    0.0000 O   0  0  0  0  0  0  0  0  0  0  0  0
    6.4641  -13.0359    0.0000 C   0  0  2  0  0  0  0  0  0  0  0  0
    5.7496  -11.7984    0.0000 C   0  0  1  0  0  0  0  0  0  0  0  0
    5.7496  -12.6234    0.0000 C   0  0  2  0  0  0  0  0  0  0  0  0
    7.8931  -13.0359    0.0000 O   0  0  0  0  0  0  0  0  0  0  0  0
    6.4641  -13.8608    0.0000 O   0  0  0  0  0  0  0  0  0  0  0  0
    5.0352  -13.0359    0.0000 O   0  0  0  0  0  0  0  0  0  0  0  0
    5.0352  -11.3859    0.0000 C   0  0  0  0  0  0  0  0  0  0  0  0
    4.3207  -11.7984    0.0000 O   0  0  0  0  0  0  0  0  0  0  0  0
    9.3220  -11.3859    0.0000 C   0  0  0  0  0  0  0  0  0  0  0  0
    8.6076  -11.7984    0.0000 O   0  0  0  0  0  0  0  0  0  0  0  0
    9.3220  -10.5609    0.0000 N   0  0  0  0  0  0  0  0  0  0  0  0
   10.0364  -11.7984    0.0000 C   0  0  0  0  0  0  0  0  0  0  0  0
    9.3220   -8.9109    0.0000 O   0  0  0  0  0  0  0  0  0  0  0  0
  1  2  1  0  0  0  0
  1  3  1  0  0  0  0
  2  4  1  0  0  0  0
  3  5  1  0  0  0  0
  4  6  1  0  0  0  0
  5  6  1  0  0  0  0
  1 26  1  0  0  0  0
  4  7  1  1  0  0  0
  6  8  1  1  0  0  0
  5  9  1  1  0  0  0
 10  9  1  0  0  0  0
 11 12  1  0  0  0  0
 11 13  1  0  0  0  0
 12 14  1  0  0  0  0
 13 15  1  0  0  0  0
 14 16  1  0  0  0  0
 15 16  1  0  0  0  0
 11  7  1  1  0  0  0
 12 17  1  6  0  0  0
 14 18  1  1  0  0  0
 16 19  1  1  0  0  0
 15 20  1  1  0  0  0
 21 20  1  0  0  0  0
 23 22  2  0  0  0  0
 24 22  1  0  0  0  0
 25 22  1  0  0  0  0
  2 24  1  6  0  0  0
M  END
> <ID>
CHEBI:546807

> <NAME>
beta-D-Galp-(1->3)-D-GalpNAc

> <DEFINITION>
An amino disaccharide consisting of D-galactopyranose at the non-reducing end joined by a (1→3) glycosidic linkage to N-acetyl-D-galactopyranosamine.

> <STAR>
3

> <SECONDARY_ID>
CHEBI:27716; CHEBI:62468; CHEBI:10382; CHEBI:22773; CHEBI:22782

> <SYNONYM>
Thomsen-Friedenreich epitope; TF epitope; Galbeta1->3GalNAc; Galbeta1-3GalNAc; beta-D-Galp-(1->3)-D-GalpNAc; beta-D-galactosyl-3-N-acetyl-D-galactosamine; beta-D-galactosyl-(1->3)-N-acetyl-D-galactosamine; beta-D-Galactopyranosyl-(1->3)-N-acetyl-D-galactosamine; beta-D-Galactopyranosyl-(1->3)-N-acetyl-D-galactosamine; beta-D-Gal-(1->3)-D-GalNAc; 2-acetamido-2-deoxy-3-O-beta-D-galactopyranosyl-D-galactopyranose; 2-(acetylamino)-2-deoxy-3-O-beta-D-galactopyranosyl-D-galactopyranose; (Gal)1 (GalNAc)1

> <IUPAC_NAME>
beta-D-galactopyranosyl-(1->3)-2-acetamido-2-deoxy-D-galactopyranose

> <FORMULA>
C14H25NO11

> <MASS>
383.34840

> <MONOISOTOPIC_MASS>
383.14276

> <CHARGE>
0

> <SMILES>
CC(=O)N[C@H]1C(O)O[C@H](CO)[C@H](O)[C@@H]1O[C@@H]1O[C@H](CO)[C@H](O)[C@H](O)[C@H]1O

> <INCHI>
InChI=1S/C14H25NO11/c1-4(18)15-7-12(9(20)6(3-17)24-13(7)23)26-14-11(22)10(21)8(19)5(2-16)25-14/h5-14,16-17,19-23H,2-3H2,1H3,(H,15,18)/t5-,6-,7-,8+,9+,10+,11-,12-,13?,14+/m1/s1

> <INCHIKEY>
HMQPEDMEOBLSQB-UITYFYQISA-N

> <BEILSTEIN_REGISTRY_NUMBER>
4788642

> <CAS_REGISTRY_NUMBER>
20972-29-6

> <REAXYS_REGISTRY_NUMBER>
4788642

> <KEGG_COMPOUND_ACCESSION>
C07278

> <KEGG_GLYCAN_ACCESSION>
G10607

> <PUBMED_CITATION>
11294842; 11425800; 11459848; 12472179; 1291050; 15963963; 16776550; 19221437; 1933953; 19443021; 19506091; 19913595; 2055602; 2457603; 2461959; 2470785; 2584393; 28188832; 3360006; 59831; 7757427; 9405387

$$$$

Marvin  09021011172D          

 23 24  0  0  1  0            999 V2000
   12.1391   -3.4107    0.0000 C   0  0  0  0  0  0  0  0  0  0  0  0
   12.1391   -4.2357    0.0000 C   0  0  1  0  0  0  0  0  0  0  0  0
   11.4246   -2.9981    0.0000 O   0  0  0  0  0  0  0  0  0  0  0  0
   11.4246   -4.6482    0.0000 C   0  0  2  0  0  0  0  0  0  0  0  0
   10.7101   -3.4107    0.0000 C   0  0  1  0  0  0  0  0  0  0  0  0
   10.7101   -4.2357    0.0000 C   0  0  2  0  0  0  0  0  0  0  0  0
   12.8536   -2.9981    0.0000 O   0  0  0  0  0  0  0  0  0  0  0  0
   11.4246   -5.4731    0.0000 O   0  0  0  0  0  0  0  0  0  0  0  0
    9.9957   -4.6482    0.0000 O   0  0  0  0  0  0  0  0  0  0  0  0
    9.9957   -2.9981    0.0000 C   0  0  0  0  0  0  0  0  0  0  0  0
    9.2813   -3.4107    0.0000 O   0  0  0  0  0  0  0  0  0  0  0  0
   12.8536   -4.6482    0.0000 O   0  0  0  0  0  0  0  0  0  0  0  0
    9.2813   -5.0606    0.0000 C   0  0  2  0  0  0  0  0  0  0  0  0
    9.2813   -5.8856    0.0000 C   0  0  1  0  0  0  0  0  0  0  0  0
    8.5667   -4.6482    0.0000 O   0  0  0  0  0  0  0  0  0  0  0  0
    8.5667   -6.2981    0.0000 C   0  0  2  0  0  0  0  0  0  0  0  0
    7.8524   -5.0606    0.0000 C   0  0  1  0  0  0  0  0  0  0  0  0
    7.8524   -5.8856    0.0000 C   0  0  2  0  0  0  0  0  0  0  0  0
    9.9957   -6.2981    0.0000 O   0  0  0  0  0  0  0  0  0  0  0  0
    8.5667   -7.1231    0.0000 O   0  0  0  0  0  0  0  0  0  0  0  0
    7.1379   -6.2981    0.0000 O   0  0  0  0  0  0  0  0  0  0  0  0
    7.1379   -4.6482    0.0000 C   0  0  0  0  0  0  0  0  0  0  0  0
    6.4234   -5.0606    0.0000 O   0  0  0  0  0  0  0  0  0  0  0  0
  1  2  1  0  0  0  0
  1  3  1  0  0  0  0
  2  4  1  0  0  0  0
  3  5  1  0  0  0  0
  4  6  1  0  0  0  0
  5  6  1  0  0  0  0
  1  7  1  0  0  0  0
  4  8  1  1  0  0  0
  6  9  1  1  0  0  0
  5 10  1  1  0  0  0
 11 10  1  0  0  0  0
  2 12  1  6  0  0  0
 13 14  1  0  0  0  0
 13 15  1  0  0  0  0
 14 16  1  0  0  0  0
 15 17  1  0  0  0  0
 16 18  1  0  0  0  0
 17 18  1  0  0  0  0
 13  9  1  6  0  0  0
 14 19  1  6  0  0  0
 16 20  1  1  0  0  0
 18 21  1  1  0  0  0
 17 22  1  1  0  0  0
 23 22  1  0  0  0  0
M  END
> <ID>
CHEBI:546808

> <NAME>
alpha-D-Gal-(1->4)-D-Gal

> <DEFINITION>
A glycosylgalactose consisting of D-galactopyranose having an α-D-galactopyranosyl residue attached at the 4-position.

> <STAR>
3

> <SYNONYM>
Galalpha1-4Gal; Galalpha1,4-Gal; alpha-Gal-(1->4)-Gal; alpha-D-Galp-(1->4)-D-Galp; alpha-D-galactosyl-(1->4)-D-galactose; alpha-(1->4)-galactobiose; 4-O-alpha-D-galactopyranosyl-D-galactopyranose

> <IUPAC_NAME>
alpha-D-galactopyranosyl-(1->4)-D-galactopyranose

> <FORMULA>
C12H22O11

> <MASS>
342.29650

> <MONOISOTOPIC_MASS>
342.11621

> <CHARGE>
0

> <SMILES>
OC[C@H]1O[C@H](O[C@H]2[C@@H](CO)OC(O)[C@H](O)[C@H]2O)[C@H](O)[C@@H](O)[C@H]1O

> <INCHI>
InChI=1S/C12H22O11/c13-1-3-5(15)6(16)9(19)12(22-3)23-10-4(2-14)21-11(20)8(18)7(10)17/h3-20H,1-2H2/t3-,4-,5+,6+,7-,8-,9-,10+,11?,12-/m1/s1

> <INCHIKEY>
GUBGYTABKSRVRQ-OEBXJAKGSA-N

> <BEILSTEIN_REGISTRY_NUMBER>
1435332

> <REAXYS_REGISTRY_NUMBER>
1435332

> <PUBMED_CITATION>
11287422; 12626386; 12966096; 15184685; 16290275; 17006649; 19913595; 8154046; 9662651

$$$$

Marvin  06031013372D          

 20 20  0  0  0  0            999 V2000
   13.0553  -22.7487    0.0000 C   0  0  0  0  0  0  0  0  0  0  0  0
   12.3408  -23.1612    0.0000 C   0  0  0  0  0  0  0  0  0  0  0  0
   13.0553  -21.9238    0.0000 C   0  0  0  0  0  0  0  0  0  0  0  0
   11.6264  -22.7487    0.0000 C   0  0  0  0  0  0  0  0  0  0  0  0
   12.3409  -21.5112    0.0000 C   0  0  0  0  0  0  0  0  0  0  0  0
   11.6264  -21.9236    0.0000 C   0  0  0  0  0  0  0  0  0  0  0  0
   10.9119  -23.1611    0.0000 N   0  3  0  0  0  0  0  0  0  0  0  0
   10.9119  -23.9861    0.0000 O   0  0  0  0  0  0  0  0  0  0  0  0
   10.1975  -22.7485    0.0000 O   0  5  0  0  0  0  0  0  0  0  0  0
   13.7698  -21.5113    0.0000 O   0  0  0  0  0  0  0  0  0  0  0  0
   14.4843  -21.9238    0.0000 P   0  0  0  0  0  0  0  0  0  0  0  0
   15.1988  -21.5113    0.0000 O   0  0  0  0  0  0  0  0  0  0  0  0
   14.4843  -22.7488    0.0000 O   0  0  0  0  0  0  0  0  0  0  0  0
   14.6978  -21.1269    0.0000 O   0  0  0  0  0  0  0  0  0  0  0  0
   15.9132  -21.9238    0.0000 C   0  0  0  0  0  0  0  0  0  0  0  0
   16.6277  -21.5113    0.0000 C   0  0  0  0  0  0  0  0  0  0  0  0
   17.3422  -21.9238    0.0000 N   0  3  0  0  0  0  0  0  0  0  0  0
   18.0566  -21.5113    0.0000 C   0  0  0  0  0  0  0  0  0  0  0  0
   17.3422  -22.7488    0.0000 C   0  0  0  0  0  0  0  0  0  0  0  0
   18.0566  -22.3363    0.0000 C   0  0  0  0  0  0  0  0  0  0  0  0
  2  1  1  0  0  0  0
  3  1  2  0  0  0  0
  4  2  2  0  0  0  0
  5  3  1  0  0  0  0
  6  4  1  0  0  0  0
  6  5  2  0  0  0  0
  7  4  1  0  0  0  0
  8  7  2  0  0  0  0
  9  7  1  0  0  0  0
  3 10  1  0  0  0  0
 10 11  1  0  0  0  0
 11 12  1  0  0  0  0
 11 13  2  0  0  0  0
 11 14  1  0  0  0  0
 12 15  1  0  0  0  0
 15 16  1  0  0  0  0
 16 17  1  0  0  0  0
 17 18  1  0  0  0  0
 17 19  1  0  0  0  0
 17 20  1  0  0  0  0
M  CHG  3   7   1   9  -1  17   1
M  END
> <ID>
CHEBI:55394

> <NAME>
p-nitrophenylphosphocholine

> <DEFINITION>
A phosphocholine that is the 4-nitrophenyl ester of choline phosphate.

> <STAR>
3

> <SECONDARY_ID>
CHEBI:44449; CHEBI:59133

> <SYNONYM>
phosphocholine 4-nitrophenyl ester; p-nitrophenylphosphorylcholine; P-NITROPHENYL-PHOSPHOCHOLINE; p-nitrophenyl phosphorylcholine; O-(4-nitrophenylphosphoryl)choline; NPPC; NPCC; nitrophenylphosphorylcholine; nitrophenylphosphocholine; 4-nitrophenylphosphorylcholine

> <IUPAC_NAME>
4-nitrophenyl 2-(trimethylammonio)ethyl phosphate; 2-{[hydroxy(4-nitrophenoxy)phosphoryl]oxy}-N,N,N-trimethylethanaminium

> <FORMULA>
C11H18N2O6P

> <MASS>
305.24420

> <MONOISOTOPIC_MASS>
305.08970

> <CHARGE>
1

> <SMILES>
C[N+](C)(C)CCOP(O)(=O)Oc1ccc(cc1)[N+]([O-])=O

> <INCHI>
InChI=1S/C11H17N2O6P/c1-13(2,3)8-9-18-20(16,17)19-11-6-4-10(5-7-11)12(14)15/h4-7H,8-9H2,1-3H3/p+1

> <INCHIKEY>
NAIXASFEPQPICN-UHFFFAOYSA-O

> <BEILSTEIN_REGISTRY_NUMBER>
10362092

> <REAXYS_REGISTRY_NUMBER>
10362092

> <PDB_ACCESSION>
1DL7

> <PDBECHEM_ACCESSION>
NCH

> <PUBMED_CITATION>
10859335; 15267227; 17630195; 6420466; 6424547

$$$$

Marvin  02051014302D          

 30 31  0  0  0  0            999 V2000
    7.9768   -9.8710    0.0000 C   0  0  1  0  0  0  0  0  0  0  0  0
    8.8018   -9.8710    0.0000 C   0  0  2  0  0  0  0  0  0  0  0  0
    8.8018  -10.6960    0.0000 N   0  0  0  0  0  0  0  0  0  0  0  0
    7.9768  -10.6960    0.0000 C   0  0  0  0  0  0  0  0  0  0  0  0
    9.3852  -11.2794    0.0000 S   0  0  0  0  0  0  0  0  0  0  0  0
    9.9685  -11.8627    0.0000 O   0  0  0  0  0  0  0  0  0  0  0  0
    9.9818  -10.6508    0.0000 O   0  0  0  0  0  0  0  0  0  0  0  0
    8.7689  -11.9079    0.0000 O   0  0  0  0  0  0  0  0  0  0  0  0
    7.3934  -11.2794    0.0000 O   0  0  0  0  0  0  0  0  0  0  0  0
    7.2623   -9.4585    0.0000 N   0  0  0  0  0  0  0  0  0  0  0  0
    6.5479   -9.8710    0.0000 C   0  0  0  0  0  0  0  0  0  0  0  0
    6.5479  -10.6960    0.0000 O   0  0  0  0  0  0  0  0  0  0  0  0
    5.8334   -9.4585    0.0000 C   0  0  0  0  0  0  0  0  0  0  0  0
    5.8334   -8.6335    0.0000 N   0  0  0  0  0  0  0  0  0  0  0  0
    4.3343  -10.9509    0.0000 S   0  0  0  0  0  0  0  0  0  0  0  0
    5.1189  -10.6960    0.0000 C   0  0  0  0  0  0  0  0  0  0  0  0
    5.1189   -9.8710    0.0000 C   0  0  0  0  0  0  0  0  0  0  0  0
    4.3343   -9.6161    0.0000 N   0  0  0  0  0  0  0  0  0  0  0  0
    3.8494  -10.2835    0.0000 C   0  0  0  0  0  0  0  0  0  0  0  0
    6.5479   -8.2210    0.0000 O   0  0  0  0  0  0  0  0  0  0  0  0
    6.5479   -7.3960    0.0000 C   0  0  0  0  0  0  0  0  0  0  0  0
    7.2623   -6.9835    0.0000 C   0  0  0  0  0  0  0  0  0  0  0  0
    7.2623   -6.1585    0.0000 O   0  0  0  0  0  0  0  0  0  0  0  0
    7.9768   -7.3960    0.0000 O   0  0  0  0  0  0  0  0  0  0  0  0
    3.0244  -10.2835    0.0000 N   0  0  0  0  0  0  0  0  0  0  0  0
    9.5163   -9.4585    0.0000 C   0  0  0  0  0  0  0  0  0  0  0  0
    9.5163   -8.6335    0.0000 O   0  0  0  0  0  0  0  0  0  0  0  0
   10.2308   -8.2210    0.0000 C   0  0  0  0  0  0  0  0  0  0  0  0
   10.9452   -8.6335    0.0000 O   0  0  0  0  0  0  0  0  0  0  0  0
   10.2308   -7.3960    0.0000 N   0  0  0  0  0  0  0  0  0  0  0  0
  1  2  1  0  0  0  0
  2  3  1  0  0  0  0
  1  4  1  0  0  0  0
  4  3  1  0  0  0  0
  3  5  1  0  0  0  0
  5  6  1  0  0  0  0
  5  7  2  0  0  0  0
  5  8  2  0  0  0  0
  4  9  2  0  0  0  0
  1 10  1  1  0  0  0
 10 11  1  0  0  0  0
 11 12  2  0  0  0  0
 11 13  1  0  0  0  0
 13 17  1  0  0  0  0
 13 14  2  0  0  0  0
 15 16  1  0  0  0  0
 15 19  1  0  0  0  0
 16 17  2  0  0  0  0
 17 18  1  0  0  0  0
 18 19  2  0  0  0  0
 14 20  1  0  0  0  0
 20 21  1  0  0  0  0
 21 22  1  0  0  0  0
 22 23  2  0  0  0  0
 22 24  1  0  0  0  0
 19 25  1  0  0  0  0
  2 26  1  1  0  0  0
 26 27  1  0  0  0  0
 27 28  1  0  0  0  0
 28 29  2  0  0  0  0
 28 30  1  0  0  0  0
M  END
> <ID>
CHEBI:55486

> <NAME>
carumonam

> <DEFINITION>
An N-sulfonated monobactam antibiotic.

> <STAR>
3

> <IUPAC_NAME>
({[(1Z)-1-(2-amino-1,3-thiazol-4-yl)-2-({(2S,3S)-2-[(carbamoyloxy)methyl]-4-oxo-1-sulfoazetidin-3-yl}amino)-2-oxoethylidene]amino}oxy)acetic acid

> <INN>
carumonamum; carumonam

> <FORMULA>
C12H14N6O10S2

> <MASS>
466.40400

> <MONOISOTOPIC_MASS>
466.02128

> <CHARGE>
0

> <SMILES>
NC(=O)OC[C@@H]1[C@H](NC(=O)C(=N/OCC(O)=O)\c2csc(N)n2)C(=O)N1S(O)(=O)=O

> <INCHI>
InChI=1S/C12H14N6O10S2/c13-11-15-4(3-29-11)7(17-28-2-6(19)20)9(21)16-8-5(1-27-12(14)23)18(10(8)22)30(24,25)26/h3,5,8H,1-2H2,(H2,13,15)(H2,14,23)(H,16,21)(H,19,20)(H,24,25,26)/b17-7-/t5-,8+/m1/s1

> <INCHIKEY>
UIMOJFJSJSIGLV-JNHMLNOCSA-N

> <BEILSTEIN_REGISTRY_NUMBER>
5786139

> <CAS_REGISTRY_NUMBER>
87638-04-8

> <REAXYS_REGISTRY_NUMBER>
5786139

> <CHEMIDPLUS>
87638-04-8

> <KEGG_DRUG_ACCESSION>
D01560

> <PUBMED_CITATION>
1384868; 3056245; 3087280; 3377459; 3490467; 3595259; 3729358; 3874598; 3935396; 4083866

$$$$

Marvin  02091009562D          

 13 13  0  0  1  0            999 V2000
    6.0166   -2.4652    0.0000 C   0  0  2  0  0  0  0  0  0  0  0  0
    5.3068   -2.8672    0.0000 C   0  0  2  0  0  0  0  0  0  0  0  0
    5.3151   -1.2180    0.0000 O   0  0  0  0  0  0  0  0  0  0  0  0
    6.0249   -1.6386    0.0000 C   0  0  2  0  0  0  0  0  0  0  0  0
    4.5970   -2.4509    0.0000 C   0  0  2  0  0  0  0  0  0  0  0  0
    4.5970   -1.6242    0.0000 C   0  0  1  0  0  0  0  0  0  0  0  0
    6.7264   -2.8815    0.0000 O   0  0  0  0  0  0  0  0  0  0  0  0
    5.2985   -3.6939    0.0000 O   0  0  0  0  0  0  0  0  0  0  0  0
    3.8788   -2.8654    0.0000 O   0  0  0  0  0  0  0  0  0  0  0  0
    6.7513   -1.2325    0.0000 O   0  0  0  0  0  0  0  0  0  0  0  0
    3.8872   -1.2037    0.0000 C   0  0  0  0  0  0  0  0  0  0  0  0
    3.8955   -0.3770    0.0000 O   0  0  0  0  0  0  0  0  0  0  0  0
    7.4611   -1.6530    0.0000 C   0  0  0  0  0  0  0  0  0  0  0  0
  2  1  1  0  0  0  0
  3  4  1  0  0  0  0
  4  1  1  0  0  0  0
  5  2  1  0  0  0  0
  6  3  1  0  0  0  0
  1  7  1  6  0  0  0
  2  8  1  1  0  0  0
  5  9  1  1  0  0  0
  4 10  1  6  0  0  0
  6 11  1  1  0  0  0
 12 11  1  0  0  0  0
 13 10  1  0  0  0  0
  6  5  1  0  0  0  0
M  END
> <ID>
CHEBI:55507

> <NAME>
methyl alpha-D-galactoside

> <DEFINITION>
An α-D-galactoside having a methyl substituent at the anomeric position.

> <STAR>
3

> <SECONDARY_ID>
CHEBI:40667

> <SYNONYM>
Me-alpha-Gal; alpha-methylgalactoside; ALPHA-METHYL-D-GALACTOSIDE; alpha-methyl D-galactoside; alpha-methyl D-galactopyranoside; alpha-D-GalpOMe; alpha-D-GalOMe

> <IUPAC_NAME>
methyl alpha-D-galactopyranoside

> <FORMULA>
C7H14O6

> <MASS>
194.18250

> <MONOISOTOPIC_MASS>
194.07904

> <CHARGE>
0

> <SMILES>
CO[C@H]1O[C@H](CO)[C@H](O)[C@H](O)[C@H]1O

> <INCHI>
InChI=1S/C7H14O6/c1-12-7-6(11)5(10)4(9)3(2-8)13-7/h3-11H,2H2,1H3/t3-,4+,5+,6-,7+/m1/s1

> <INCHIKEY>
HOVAGTYPODGVJG-PZRMXXKTSA-N

> <BEILSTEIN_REGISTRY_NUMBER>
81570

> <CAS_REGISTRY_NUMBER>
3396-99-4

> <GMELIN_REGISTRY_NUMBER>
408560

> <REAXYS_REGISTRY_NUMBER>
81570

> <CHEMIDPLUS>
3396-99-4

> <METACYC_ACCESSION>
CPD-3565

> <PDBECHEM_ACCESSION>
AMG

> <PUBMED_CITATION>
17724458; 19061991; 19913595; 3290105; 7524207

$$$$

Marvin  06260715282D          

  8  7  0  0  0  0            999 V2000
    0.8250   -0.7145    0.0000 F   0  0  0  0  0  0  0  0  0  0  0  0
   -0.8250    0.7145    0.0000 Br  0  0  0  0  0  0  0  0  0  0  0  0
   -0.8250   -0.7145    0.0000 Cl  0  0  0  0  0  0  0  0  0  0  0  0
    0.8250    0.7145    0.0000 F   0  0  0  0  0  0  0  0  0  0  0  0
    0.4125    0.0000    0.0000 C   0  0  3  0  0  0  0  0  0  0  0  0
    1.2375    0.0000    0.0000 F   0  0  0  0  0  0  0  0  0  0  0  0
   -0.4125    0.0000    0.0000 C   0  0  3  0  0  0  0  0  0  0  0  0
   -1.2375   -0.0000    0.0000 H   0  0  0  0  0  0  0  0  0  0  0  0
  1  5  1  0  0  0  0
  7  5  1  0  0  0  0
  2  7  1  0  0  0  0
  3  7  1  0  0  0  0
  4  5  1  0  0  0  0
  5  6  1  0  0  0  0
  7  8  1  0  0  0  0
M  END
> <ID>
CHEBI:5615

> <NAME>
halothane

> <DEFINITION>
A haloalkane comprising ethane having three flouro substituents at the 1-position as well as bromo- and chloro substituents at the 2-position.

> <STAR>
3

> <SYNONYM>
Rhodialothan; Phthorothanum; Narcotane; Halothane; Fluothane; bromochlorotrifluoroethane; 2-bromo-2-chloro-1,1,1-trifluoroethane; 2,2,2-trifluoro-1-chloro-1-bromoethane; 1-bromo-1-chloro-2,2,2-trifluoroethane; 1,1,1-trifluoro-2-chloro-2-bromoethane; 1,1,1-trifluoro-2-bromo-2-chloroethane

> <IUPAC_NAME>
2-bromo-2-chloro-1,1,1-trifluoroethane

> <FORMULA>
C2HBrClF3

> <MASS>
197.38125

> <MONOISOTOPIC_MASS>
195.89022

> <CHARGE>
0

> <SMILES>
[H]C(Cl)(Br)C(F)(F)F

> <INCHI>
InChI=1S/C2HBrClF3/c3-1(4)2(5,6)7/h1H

> <INCHIKEY>
BCQZXOMGPXTTIC-UHFFFAOYSA-N

> <BEILSTEIN_REGISTRY_NUMBER>
1736947

> <CAS_REGISTRY_NUMBER>
151-67-7

> <GMELIN_REGISTRY_NUMBER>
793752

> <CHEMIDPLUS>
151-67-7

> <DRUGBANK_ACCESSION>
DB01159

> <KEGG_COMPOUND_ACCESSION>
C07515

> <KEGG_DRUG_ACCESSION>
D00542

> <NIST_CHEMISTRY_WEBBOOK>
151-67-7

> <WIKIPEDIA_ACCESSION>
Halothane

> <PUBMED_CITATION>
7519986

$$$$

Marvin  08051016022D          

  9  9  0  0  0  0            999 V2000
   11.2386   -3.5436    0.0000 C   0  0  0  0  0  0  0  0  0  0  0  0
   10.9852   -4.3285    0.0000 C   0  0  0  0  0  0  0  0  0  0  0  0
   11.6493   -4.8109    0.0000 O   0  0  0  0  0  0  0  0  0  0  0  0
   12.3175   -4.3285    0.0000 C   0  0  0  0  0  0  0  0  0  0  0  0
   12.0637   -3.5436    0.0000 C   0  0  0  0  0  0  0  0  0  0  0  0
   13.1026   -4.5822    0.0000 C   0  0  0  0  0  0  0  0  0  0  0  0
   13.2735   -5.3895    0.0000 O   0  0  0  0  0  0  0  0  0  0  0  0
   13.7156   -4.0300    0.0000 C   0  0  0  0  0  0  0  0  0  0  0  0
   10.2008   -4.5842    0.0000 C   0  0  0  0  0  0  0  0  0  0  0  0
  4  5  2  0  0  0  0
  5  1  1  0  0  0  0
  1  2  2  0  0  0  0
  4  6  1  0  0  0  0
  6  7  2  0  0  0  0
  2  3  1  0  0  0  0
  3  4  1  0  0  0  0
  6  8  1  0  0  0  0
  2  9  1  0  0  0  0
M  END
> <ID>
CHEBI:562752

> <NAME>
2-acetyl-5-methylfuran

> <DEFINITION>
A furan carrying acetyl and methyl substituents at the 2- and 5-positions respectively.

> <STAR>
3

> <SYNONYM>
Methyl 5-methyl-2-furyl ketone; 5-Methyl-2-furylmethylketone; 5-Methyl-2-acetylfuran; 5-Acetyl-2-methylfuran; 2-Methyl-5-acetylfuran; 1-(5-Methyl-2-furyl)ethanone; 1-(5-methyl-2-furyl)ethan-1-one; 1-(5-Methyl-2-furanyl)ethanone

> <IUPAC_NAME>
1-(5-methyl-2-furyl)ethanone

> <FORMULA>
C7H8O2

> <MASS>
124.13720

> <MONOISOTOPIC_MASS>
124.05243

> <CHARGE>
0

> <SMILES>
CC(=O)c1ccc(C)o1

> <INCHI>
InChI=1S/C7H8O2/c1-5-3-4-7(9-5)6(2)8/h3-4H,1-2H3

> <INCHIKEY>
KEFJLCGVTHRGAH-UHFFFAOYSA-N

> <BEILSTEIN_REGISTRY_NUMBER>
110853

> <CAS_REGISTRY_NUMBER>
1193-79-9

> <GMELIN_REGISTRY_NUMBER>
720235

> <CHEMIDPLUS>
1193-79-9

> <NIST_CHEMISTRY_WEBBOOK>
1193-79-9

> <PUBMED_CITATION>
2917974

$$$$

Mrv0541 02021514262D          

  7  6  0  0  0  0            999 V2000
   10.4157   -3.9223    0.0000 C   0  0  0  0  0  0  0  0  0  0  0  0
    9.7012   -4.3348    0.0000 C   0  0  0  0  0  0  0  0  0  0  0  0
    8.9867   -3.9223    0.0000 C   0  0  0  0  0  0  0  0  0  0  0  0
   10.4157   -3.0973    0.0000 O   0  0  0  0  0  0  0  0  0  0  0  0
    8.9867   -3.0973    0.0000 O   0  0  0  0  0  0  0  0  0  0  0  0
    8.2722   -4.3348    0.0000 H   0  0  0  0  0  0  0  0  0  0  0  0
   11.1302   -4.3348    0.0000 H   0  0  0  0  0  0  0  0  0  0  0  0
  2  1  1  0  0  0  0
  4  1  2  0  0  0  0
  3  2  1  0  0  0  0
  5  3  2  0  0  0  0
  3  6  1  0  0  0  0
  1  7  1  0  0  0  0
M  END
> <ID>
CHEBI:566274

> <NAME>
malonaldehyde

> <DEFINITION>
A dialdehyde that is propane substituted by two oxo groups at the terminal carbon atoms respectively. A biomarker of oxidative damage to lipids caused by smoking, it exists in vivo mainly in the enol form.

> <STAR>
3

> <SECONDARY_ID>
CHEBI:43895

> <SYNONYM>
MDD; MDA; Malonyldialdehyde; Malonodialdehyde; Malonic dialdehyde; Malonic aldehyde; Malondialdehyde; Malondialdehyde; malonaldehyde; 1,3-Propanedione; 1,3-Propanedialdehyde; 1,3-Propanedial

> <IUPAC_NAME>
propanedial

> <FORMULA>
C3H4O2

> <MASS>
72.06270

> <MONOISOTOPIC_MASS>
72.02113

> <CHARGE>
0

> <SMILES>
O=CCC=O

> <INCHI>
InChI=1S/C3H4O2/c4-2-1-3-5/h2-3H,1H2

> <INCHIKEY>
WSMYVTOQOOLQHP-UHFFFAOYSA-N

> <BEILSTEIN_REGISTRY_NUMBER>
1209262

> <CAS_REGISTRY_NUMBER>
542-78-9

> <GMELIN_REGISTRY_NUMBER>
362229

> <REAXYS_REGISTRY_NUMBER>
1209262

> <CHEMIDPLUS>
542-78-9

> <DRUGBANK_ACCESSION>
DB03057

> <KEGG_COMPOUND_ACCESSION>
C19440

> <NIST_CHEMISTRY_WEBBOOK>
542-78-9

> <PDBECHEM_ACCESSION>
MDD

> <PUBMED_CITATION>
15583011; 17548130; 23900424; 24168430; 28600633; 28600933; 28783520; 29348025

$$$$



22 24  0  0  1  0  0  0  0  0999 V2000
   26.0400  -16.4500    0.0000 C   0  0  3  0  0  0  0  0  0  0  0  0
   26.3900  -15.2600    0.0000 C   0  0  3  0  0  0  0  0  0  0  0  0
   27.2300  -16.1700    0.0000 C   0  0  2  0  0  0  0  0  0  0  0  0
   27.5800  -14.9800    0.0000 C   0  0  1  0  0  0  0  0  0  0  0  0
   26.3200  -13.6500    0.0000 N   0  0  3  0  0  0  0  0  0  0  0  0
   29.1200  -16.1700    0.0000 C   0  0  0  0  0  0  0  0  0  0  0  0
   28.8400  -14.9800    0.0000 C   0  0  0  0  0  0  0  0  0  0  0  0
   30.1700  -16.7300    0.0000 C   0  0  2  0  0  0  0  0  0  0  0  0
   31.2200  -17.5700    0.0000 O   0  0  0  0  0  0  0  0  0  0  0  0
   32.4100  -17.5700    0.0000 C   0  0  0  0  0  0  0  0  0  0  0  0
   33.0400  -16.5200    0.0000 C   0  0  1  0  0  0  0  0  0  0  0  0
   33.0400  -18.7600    0.0000 O   0  0  0  0  0  0  0  0  0  0  0  0
   34.3000  -16.5200    0.0000 C   0  0  0  0  0  0  0  0  0  0  0  0
   32.4100  -15.4700    0.0000 O   0  0  0  0  0  0  0  0  0  0  0  0
   27.4400  -17.5000    0.0000 H   0  0  0  0  0  0  0  0  0  0  0  0
   28.2100  -13.7200    0.0000 H   0  0  0  0  0  0  0  0  0  0  0  0
   35.0000  -17.7800    0.0000 C   0  0  0  0  0  0  0  0  0  0  0  0
   36.4000  -17.7800    0.0000 C   0  0  0  0  0  0  0  0  0  0  0  0
   37.1000  -16.5200    0.0000 C   0  0  0  0  0  0  0  0  0  0  0  0
   36.4000  -15.3300    0.0000 C   0  0  0  0  0  0  0  0  0  0  0  0
   35.0000  -15.3300    0.0000 C   0  0  0  0  0  0  0  0  0  0  0  0
   25.5500  -12.4600    0.0000 C   0  0  0  0  0  0  0  0  0  0  0  0
  1  2  1  0     0  0
  1  3  1  0     0  0
  2  4  1  0     0  0
  3  5  1  0     0  0
  3  6  1  0     0  0
  4  7  1  0     0  0
  6  8  1  0     0  0
  8  9  1  6     0  0
  9 10  1  0     0  0
 10 11  1  0     0  0
 10 12  2  0     0  0
 11 13  1  0     0  0
 11 14  1  0     0  0
  4  5  1  0     0  0
  7  8  1  0     0  0
  3 15  1  1     0  0
  4 16  1  6     0  0
 13 17  2  0     0  0
 17 18  1  0     0  0
 18 19  2  0     0  0
 19 20  1  0     0  0
 20 21  2  0     0  0
 13 21  1  0     0  0
  5 22  1  0     0  0
M  END
> <ID>
CHEBI:5747

> <NAME>
Homatropine

> <STAR>
2

> <SYNONYM>
tropine mandelate; mandelyltropeine; homoatropine; homatropine sulfate; homatropine hydrobromide; Homatropine; homatropin; (+/-)-Mandelyltropine; (+/-)-Homatropine

> <FORMULA>
C16H21NO3

> <MASS>
275.343

> <MONOISOTOPIC_MASS>
275.15214

> <CHARGE>
0

> <SMILES>
CN1[C@H]2CC[C@@H]1C[C@@H](C2)OC(=O)C(O)c1ccccc1

> <INCHI>
InChI=1S/C16H21NO3/c1-17-12-7-8-13(17)10-14(9-12)20-16(19)15(18)11-5-3-2-4-6-11/h2-6,12-15,18H,7-10H2,1H3/t12-,13+,14+,15?

> <INCHIKEY>
ZTVIKZXZYLEVOL-MCOXGKPRSA-N

> <CAS_REGISTRY_NUMBER>
87-00-3

> <KEGG_COMPOUND_ACCESSION>
C07814

$$$$

Marvin  10211013232D          

 12 13  0  0  0  0            999 V2000
   10.8120   -4.6965    0.0000 N   0  0  0  0  0  0  0  0  0  0  0  0
   10.8120   -3.8715    0.0000 N   0  0  0  0  0  0  0  0  0  0  0  0
    7.9543   -3.8715    0.0000 C   0  0  0  0  0  0  0  0  0  0  0  0
    7.9543   -4.6965    0.0000 C   0  0  0  0  0  0  0  0  0  0  0  0
    8.6686   -5.1090    0.0000 C   0  0  0  0  0  0  0  0  0  0  0  0
    9.3831   -4.6965    0.0000 C   0  0  0  0  0  0  0  0  0  0  0  0
    9.3831   -3.8715    0.0000 C   0  0  0  0  0  0  0  0  0  0  0  0
    8.6686   -3.4590    0.0000 C   0  0  0  0  0  0  0  0  0  0  0  0
   10.0976   -5.1090    0.0000 C   0  0  0  0  0  0  0  0  0  0  0  0
   10.0976   -3.4590    0.0000 C   0  0  0  0  0  0  0  0  0  0  0  0
   10.0976   -2.6340    0.0000 N   0  0  0  0  0  0  0  0  0  0  0  0
   10.8122   -2.2216    0.0000 N   0  0  0  0  0  0  0  0  0  0  0  0
  1  2  1  0  0  0  0
  3  4  2  0  0  0  0
  4  5  1  0  0  0  0
  5  6  2  0  0  0  0
  6  7  1  0  0  0  0
  3  8  1  0  0  0  0
  7  8  2  0  0  0  0
  9  1  2  0  0  0  0
  6  9  1  0  0  0  0
  7 10  1  0  0  0  0
  2 10  2  0  0  0  0
 10 11  1  0  0  0  0
 11 12  1  0  0  0  0
M  END
> <ID>
CHEBI:5775

> <NAME>
hydralazine

> <DEFINITION>
The 1-hydrazino derivative of phthalazine; a direct-acting vasodilator that is used as an antihypertensive agent.

> <STAR>
3

> <SYNONYM>
phthalazin-1-ylhydrazine; Idralazina; Hypophthalin; Hydrazone 1(2H)-phthalazinone; Hydrazinophthalazine; Hydrallazine; Hydralazin; 6-Hydralazine; 1-Phthalazinylhydrazine; 1-Hydrazinophthalazine; (2H)-Phthalazinone hydrazone; (1Z)-1(2H)-Phthalazinone hydrazone

> <IUPAC_NAME>
1-hydrazinophthalazine

> <INN>
hydralazinum; hydralazine; hidralazina

> <FORMULA>
C8H8N4

> <MASS>
160.17590

> <MONOISOTOPIC_MASS>
160.07490

> <CHARGE>
0

> <SMILES>
NNc1nncc2ccccc12

> <INCHI>
InChI=1S/C8H8N4/c9-11-8-7-4-2-1-3-6(7)5-10-12-8/h1-5H,9H2,(H,11,12)

> <INCHIKEY>
RPTUSVTUFVMDQK-UHFFFAOYSA-N

> <BEILSTEIN_REGISTRY_NUMBER>
132615

> <CAS_REGISTRY_NUMBER>
86-54-4

> <GMELIN_REGISTRY_NUMBER>
4337

> <CHEMIDPLUS>
86-54-4

> <DRUGBANK_ACCESSION>
DB01275

> <KEGG_COMPOUND_ACCESSION>
C07040

> <KEGG_DRUG_ACCESSION>
D08044

> <LINCS_ACCESSION>
LSM-15370

> <NIST_CHEMISTRY_WEBBOOK>
86-54-4

> <WIKIPEDIA_ACCESSION>
Hydralazine

> <PUBMED_CITATION>
808562

$$$$

Ketcher 07151614332D 1   1.00000     0.00000     0

 14 14  0     0  0            999 V2000
    8.1525  -16.0326    0.0000 C   0  0  0  0  0  0  0  0  0  0  0  0
    8.1525  -16.8970    0.0000 C   0  0  0  0  0  0  0  0  0  0  0  0
    7.4040  -15.6004    0.0000 O   0  0  0  0  0  0  0  0  0  0  0  0
    7.4040  -17.3292    0.0000 C   0  0  0  0  0  0  0  0  0  0  0  0
    6.6554  -16.0326    0.0000 C   0  0  0  0  0  0  0  0  0  0  0  0
    6.6554  -16.8970    0.0000 C   0  0  0  0  0  0  0  0  0  0  0  0
    8.9012  -17.3292    0.0000 O   0  0  0  0  0  0  0  0  0  0  0  0
    7.4040  -18.1936    0.0000 O   0  0  0  0  0  0  0  0  0  0  0  0
    5.9069  -17.3292    0.0000 O   0  0  0  0  0  0  0  0  0  0  0  0
    5.9069  -15.6004    0.0000 C   0  0  0  0  0  0  0  0  0  0  0  0
    5.1582  -16.0326    0.0000 O   0  0  0  0  0  0  0  0  0  0  0  0
    5.9069  -14.7360    0.0000 O   0  0  0  0  0  0  0  0  0  0  0  0
    3.7524  -17.3448    0.0000 H   0  0  0  0  0  0  0  0  0  0  0  0
    9.6251  -16.0092    0.0000 O   0  0  0  0  0  0  0  0  0  0  0  0
  1  2  1  0     0  0
  1  3  1  0     0  0
  2  4  1  0     0  0
  3  5  1  0     0  0
  4  6  1  0     0  0
  5  6  1  0     0  0
  2  7  1  1     0  0
  4  8  1  1     0  0
  6  9  1  6     0  0
  5 10  1  0     0  0
 11 10  1  0     0  0
 10 12  2  0     0  0
  9 13  1  0     0  0
  1 14  1  1     0  0
M  CHG  1  11  -1
M  STY  1   1 SRU
M  SLB  1   1   1
M  SCN  1   1 HT 
M  SMT   1 n
M  SAL   1 12   1   2   3   4   5   6   7   8   9  10  11  12
M  SBL   1  2  13  14
M  SDI   1  4    5.0609  -18.0504    4.5983  -16.6235
M  SDI   1  4    8.6575  -15.3075    9.1201  -16.7343
M  END
> <ID>
CHEBI:58187

> <NAME>
alginate

> <DEFINITION>
The ionic polymer obtained by global deprotonation of the carboxy groups of alginic acid; major species at pH 7.3.

> <STAR>
3

> <SYNONYM>
alginate anion; alginate; (alginate)n

> <FORMULA>
(C6H7O6)n.H2O

> <CHARGE>
-1

> <WIKIPEDIA_ACCESSION>
Alginic_acid

$$$$

Marvin  02231014322D          

 12 11  0  0  0  0            999 V2000
   -3.9704    1.4732    0.0000 C   0  0  0  0  0  0  0  0  0  0  0  0
   -3.2559    1.0607    0.0000 C   0  0  0  0  0  0  0  0  0  0  0  0
   -2.5414    1.4732    0.0000 C   0  0  0  0  0  0  0  0  0  0  0  0
   -1.8269    1.0607    0.0000 C   0  0  0  0  0  0  0  0  0  0  0  0
   -1.1125    1.4732    0.0000 C   0  0  0  0  0  0  0  0  0  0  0  0
   -0.3980    1.0607    0.0000 C   0  0  1  0  0  0  0  0  0  0  0  0
    0.3165    1.4732    0.0000 C   0  0  0  0  0  0  0  0  0  0  0  0
    1.0309    1.0607    0.0000 C   0  0  0  0  0  0  0  0  0  0  0  0
    1.7454    1.4732    0.0000 C   0  0  0  0  0  0  0  0  0  0  0  0
    1.7454    2.2982    0.0000 O   0  0  0  0  0  0  0  0  0  0  0  0
   -0.3980    0.2357    0.0000 O   0  0  0  0  0  0  0  0  0  0  0  0
    2.4599    1.0607    0.0000 H   0  0  0  0  0  0  0  0  0  0  0  0
  1  2  1  0  0  0  0
  2  3  1  0  0  0  0
  3  4  1  0  0  0  0
  4  5  1  0  0  0  0
  5  6  1  0  0  0  0
  6  7  1  0  0  0  0
  7  8  2  0  0  0  0
  8  9  1  0  0  0  0
  9 10  2  0  0  0  0
  6 11  1  1  0  0  0
  9 12  1  0  0  0  0
M  END
> <ID>
CHEBI:58967

> <NAME>
(2E,4S)-4-hydroxynon-2-enal

> <DEFINITION>
The S stereoisomer of (E)-4-hydroxynon-2-enal.

> <STAR>
3

> <SYNONYM>
S-HNE

> <IUPAC_NAME>
(2E,4S)-4-hydroxynon-2-enal

> <FORMULA>
C9H16O2

> <MASS>
156.22210

> <MONOISOTOPIC_MASS>
156.11503

> <CHARGE>
0

> <SMILES>
[H]C(=O)\C=C\[C@@H](O)CCCCC

> <INCHI>
InChI=1S/C9H16O2/c1-2-3-4-6-9(11)7-5-8-10/h5,7-9,11H,2-4,6H2,1H3/b7-5+/t9-/m0/s1

> <INCHIKEY>
JVJFIQYAHPMBBX-IWGCBNPKSA-N

> <PUBMED_CITATION>
16603628; 26437435

$$$$

Marvin  02231014332D          

 12 11  0  0  0  0            999 V2000
   -3.9704    1.4732    0.0000 C   0  0  0  0  0  0  0  0  0  0  0  0
   -3.2559    1.0607    0.0000 C   0  0  0  0  0  0  0  0  0  0  0  0
   -2.5414    1.4732    0.0000 C   0  0  0  0  0  0  0  0  0  0  0  0
   -1.8269    1.0607    0.0000 C   0  0  0  0  0  0  0  0  0  0  0  0
   -1.1125    1.4732    0.0000 C   0  0  0  0  0  0  0  0  0  0  0  0
   -0.3980    1.0607    0.0000 C   0  0  0  0  0  0  0  0  0  0  0  0
    0.3165    1.4732    0.0000 C   0  0  0  0  0  0  0  0  0  0  0  0
    1.0309    1.0607    0.0000 C   0  0  0  0  0  0  0  0  0  0  0  0
    1.7454    1.4732    0.0000 C   0  0  0  0  0  0  0  0  0  0  0  0
    1.7454    2.2982    0.0000 O   0  0  0  0  0  0  0  0  0  0  0  0
   -0.3980    0.2357    0.0000 O   0  0  0  0  0  0  0  0  0  0  0  0
    2.4599    1.0607    0.0000 H   0  0  0  0  0  0  0  0  0  0  0  0
  1  2  1  0  0  0  0
  2  3  1  0  0  0  0
  3  4  1  0  0  0  0
  4  5  1  0  0  0  0
  5  6  1  0  0  0  0
  6  7  1  0  0  0  0
  7  8  2  0  0  0  0
  8  9  1  0  0  0  0
  9 10  2  0  0  0  0
  6 11  1  0  0  0  0
  9 12  1  0  0  0  0
M  END
> <ID>
CHEBI:58968

> <NAME>
(E)-4-hydroxynon-2-enal

> <DEFINITION>
The E (trans) stereoisomer of 4-hydroxynon-2-enal; it is the primary α,β-unsaturated hydroxyalkenal produced by lipid peroxidation in cells.

> <STAR>
3

> <SYNONYM>
trans-4-Hydroxy-2-nonenal; HNE; 4-hydroxynonenal; 4-Hydroxy-2,3-trans-nonenal; (E)-4-hydroxynon-2-enal; (E)-4-hydroxy-2-nonenal

> <IUPAC_NAME>
(2E)-4-hydroxynon-2-enal

> <FORMULA>
C9H16O2

> <MASS>
156.22210

> <MONOISOTOPIC_MASS>
156.11503

> <CHARGE>
0

> <SMILES>
[H]C(=O)\C=C\C(O)CCCCC

> <INCHI>
InChI=1S/C9H16O2/c1-2-3-4-6-9(11)7-5-8-10/h5,7-9,11H,2-4,6H2,1H3/b7-5+

> <INCHIKEY>
JVJFIQYAHPMBBX-FNORWQNLSA-N

> <CAS_REGISTRY_NUMBER>
18286-49-2

> <CHEMIDPLUS>
18286-49-2

> <LIPID_MAPS_INSTANCE_ACCESSION>
LMFA06000051

> <PUBMED_CITATION>
16603628; 17189262; 23543734; 26800898

$$$$
ChEBI
  Marvin  02231015042D          

 11 10  0  0  0  0            999 V2000
   12.5341   -3.4897    0.0000 C   0  0  0  0  0  0  0  0  0  0  0  0
   11.8250   -3.9114    0.0000 C   0  0  0  0  0  0  0  0  0  0  0  0
   10.3877   -3.9114    0.0000 C   0  0  0  0  0  0  0  0  0  0  0  0
    9.6786   -3.4897    0.0000 C   0  0  0  0  0  0  0  0  0  0  0  0
    8.9504   -3.9114    0.0000 C   0  0  0  0  0  0  0  0  0  0  0  0
    8.2413   -3.4897    0.0000 C   0  0  0  0  0  0  0  0  0  0  0  0
    7.5130   -3.9114    0.0000 C   0  0  0  0  0  0  0  0  0  0  0  0
    6.7847   -3.4897    0.0000 C   0  0  0  0  0  0  0  0  0  0  0  0
   10.3877   -4.7354    0.0000 O   0  0  0  0  0  0  0  0  0  0  0  0
   13.2512   -3.8976    0.0000 O   0  0  0  0  0  0  0  0  0  0  0  0
   11.1159   -3.4897    0.0000 C   0  0  0  0  0  0  0  0  0  0  0  0
  2  1  1  0  0  0  0
 11  2  2  0  0  0  0
  3 11  1  0  0  0  0
  4  3  1  0  0  0  0
  9  3  2  0  0  0  0
  5  4  1  0  0  0  0
  6  5  1  0  0  0  0
  7  6  1  0  0  0  0
  8  7  1  0  0  0  0
 10  1  2  0  0  0  0
M  END
> <ID>
CHEBI:58972

> <NAME>
(E)-4-oxonon-2-enal

> <DEFINITION>
The enal that is (E)-non-2-enal substituted with an oxo group at C-4.

> <STAR>
3

> <SYNONYM>
ONE; 4-Oxo-2-nonenal; (E)-4-oxonon-2-enal

> <IUPAC_NAME>
(2E)-4-oxonon-2-enal

> <FORMULA>
C9H14O2

> <MASS>
154.20630

> <MONOISOTOPIC_MASS>
154.09938

> <CHARGE>
0

> <SMILES>
CCCCCC(=O)\C=C\C=O

> <INCHI>
InChI=1S/C9H14O2/c1-2-3-4-6-9(11)7-5-8-10/h5,7-8H,2-4,6H2,1H3/b7-5+

> <INCHIKEY>
SEPPVOUBHWNCAW-FNORWQNLSA-N

> <BEILSTEIN_REGISTRY_NUMBER>
4963551

> <CAS_REGISTRY_NUMBER>
103560-62-9

> <REAXYS_REGISTRY_NUMBER>
4963551

> <CHEMIDPLUS>
103560-62-9

> <PUBMED_CITATION>
16603628; 23543734

$$$$

Marvin  04191314282D          

 15 16  0  0  0  0            999 V2000
    8.5311  -13.6442    0.0000 C   0  0  0  0  0  0  0  0  0  0  0  0
    7.4511  -14.4287    0.0000 N   0  0  0  0  0  0  0  0  0  0  0  0
    6.6542  -14.6423    0.0000 C   0  0  0  0  0  0  0  0  0  0  0  0
    7.7060  -13.6442    0.0000 C   0  0  0  0  0  0  0  0  0  0  0  0
    7.2935  -12.9297    0.0000 C   0  0  0  0  0  0  0  0  0  0  0  0
    8.1186  -14.9137    0.0000 N   0  0  0  0  0  0  0  0  0  0  0  0
    8.1186  -15.7387    0.0000 C   0  0  0  0  0  0  0  0  0  0  0  0
    8.1186  -17.3886    0.0000 C   0  0  0  0  0  0  0  0  0  0  0  0
    8.8330  -16.9762    0.0000 C   0  0  0  0  0  0  0  0  0  0  0  0
    8.8330  -16.1512    0.0000 C   0  0  0  0  0  0  0  0  0  0  0  0
    7.4041  -16.1512    0.0000 C   0  0  0  0  0  0  0  0  0  0  0  0
    7.4041  -16.9762    0.0000 C   0  0  0  0  0  0  0  0  0  0  0  0
    8.7860  -14.4287    0.0000 C   0  0  0  0  0  0  0  0  0  0  0  0
    9.5829  -14.6423    0.0000 O   0  0  0  0  0  0  0  0  0  0  0  0
    8.9436  -12.9297    0.0000 N   0  0  0  0  0  0  0  0  0  0  0  0
  6 13  1  0  0  0  0
  6  2  1  0  0  0  0
 13  1  1  0  0  0  0
  1  4  2  0  0  0  0
  4  2  1  0  0  0  0
  2  3  1  0  0  0  0
  4  5  1  0  0  0  0
  6  7  1  0  0  0  0
 10  7  2  0  0  0  0
  7 11  1  0  0  0  0
  8  9  2  0  0  0  0
  8 12  1  0  0  0  0
  9 10  1  0  0  0  0
 11 12  2  0  0  0  0
 13 14  2  0  0  0  0
  1 15  1  0  0  0  0
M  END
> <ID>
CHEBI:59026

> <NAME>
4-aminoantipyrine

> <DEFINITION>
A pyrazolone, a member of the class of  pyrazoles that is antipyrine substituted at C-4 by an amino group.  It is a metabolite of aminopyrine and of metamizole.

> <STAR>
3

> <SYNONYM>
Solvapyrin-A; Solnapyrin-A; Metapirazone; Ampyrone; Aminoazophene; Aminoazophenazone; Aminoantipyrine; Aminoantipyrin; 4-Aminophenazone; 4-Aminoantipyrene; 4-Amino-2,3-dimethyl-1-phenyl-3-pyrazolin-5-one; 4-AAP

> <IUPAC_NAME>
4-amino-1,5-dimethyl-2-phenyl-1,2-dihydro-3H-pyrazol-3-one

> <FORMULA>
C11H13N3O

> <MASS>
203.24040

> <MONOISOTOPIC_MASS>
203.10586

> <CHARGE>
0

> <SMILES>
Cc1c(N)c(=O)n(-c2ccccc2)n1C

> <INCHI>
InChI=1S/C11H13N3O/c1-8-10(12)11(15)14(13(8)2)9-6-4-3-5-7-9/h3-7H,12H2,1-2H3

> <INCHIKEY>
RLFWWDJHLFCNIJ-UHFFFAOYSA-N

> <BEILSTEIN_REGISTRY_NUMBER>
181635

> <CAS_REGISTRY_NUMBER>
83-07-8

> <REAXYS_REGISTRY_NUMBER>
181635

> <CHEMIDPLUS>
83-07-8

> <LINCS_ACCESSION>
LSM-5369

> <NIST_CHEMISTRY_WEBBOOK>
83-07-8

> <WIKIPEDIA_ACCESSION>
Ampyrone

> <PUBMED_CITATION>
24056243; 24508878; 25476354; 25652276; 25947243; 3425858

$$$$

Marvin  04191316182D          

 24 25  0  0  0  0            999 V2000
    7.6750  -12.9079    0.0000 C   0  0  0  0  0  0  0  0  0  0  0  0
    6.5950  -13.6924    0.0000 N   0  0  0  0  0  0  0  0  0  0  0  0
    5.7981  -13.9060    0.0000 C   0  0  0  0  0  0  0  0  0  0  0  0
    6.8499  -12.9079    0.0000 C   0  0  0  0  0  0  0  0  0  0  0  0
    6.4374  -12.1934    0.0000 C   0  0  0  0  0  0  0  0  0  0  0  0
    7.2625  -14.1774    0.0000 N   0  0  0  0  0  0  0  0  0  0  0  0
    7.2625  -15.0023    0.0000 C   0  0  0  0  0  0  0  0  0  0  0  0
    7.2625  -16.6523    0.0000 C   0  0  0  0  0  0  0  0  0  0  0  0
    7.9769  -16.2398    0.0000 C   0  0  0  0  0  0  0  0  0  0  0  0
    7.9769  -15.4148    0.0000 C   0  0  0  0  0  0  0  0  0  0  0  0
    6.5480  -15.4148    0.0000 C   0  0  0  0  0  0  0  0  0  0  0  0
    6.5480  -16.2398    0.0000 C   0  0  0  0  0  0  0  0  0  0  0  0
    7.9299  -13.6924    0.0000 C   0  0  0  0  0  0  0  0  0  0  0  0
    8.7267  -13.9060    0.0000 O   0  0  0  0  0  0  0  0  0  0  0  0
    8.1599  -12.2405    0.0000 N   0  0  0  0  0  0  0  0  0  0  0  0
    8.9804  -12.3267    0.0000 C   0  0  0  0  0  0  0  0  0  0  0  0
    9.4653  -11.6593    0.0000 C   0  0  0  0  0  0  0  0  0  0  0  0
   10.2858  -11.7455    0.0000 C   0  0  0  0  0  0  0  0  0  0  0  0
   10.7707  -11.0782    0.0000 C   0  0  0  0  0  0  0  0  0  0  0  0
   11.5912  -11.1643    0.0000 C   0  0  0  0  0  0  0  0  0  0  0  0
   12.0762  -10.4969    0.0000 C   0  0  0  0  0  0  0  0  0  0  0  0
   12.8966  -10.5832    0.0000 O   0  0  0  0  0  0  0  0  0  0  0  0
   11.7406   -9.7432    0.0000 O   0  0  0  0  0  0  0  0  0  0  0  0
    9.3160  -13.0804    0.0000 O   0  0  0  0  0  0  0  0  0  0  0  0
  6 13  1  0  0  0  0
  6  2  1  0  0  0  0
 13  1  1  0  0  0  0
  1  4  2  0  0  0  0
  4  2  1  0  0  0  0
  2  3  1  0  0  0  0
  4  5  1  0  0  0  0
  6  7  1  0  0  0  0
 10  7  2  0  0  0  0
  7 11  1  0  0  0  0
  8  9  2  0  0  0  0
  8 12  1  0  0  0  0
  9 10  1  0  0  0  0
 11 12  2  0  0  0  0
 13 14  2  0  0  0  0
  1 15  1  0  0  0  0
 15 16  1  0  0  0  0
 16 17  1  0  0  0  0
 17 18  1  0  0  0  0
 18 19  1  0  0  0  0
 19 20  1  0  0  0  0
 20 21  1  0  0  0  0
 21 22  1  0  0  0  0
 21 23  2  0  0  0  0
 16 24  2  0  0  0  0
M  END
> <ID>
CHEBI:59041

> <NAME>
4-(5-carboxypentanamido)antipyrine

> <DEFINITION>
A dicarboxylic acid monoamide that is the N-antipyrinyl derivative of adipamic acid.

> <STAR>
3

> <SYNONYM>
Phenaz; N-antipyrinyladipamic acid

> <IUPAC_NAME>
6-[(1,5-dimethyl-3-oxo-2-phenyl-2,3-dihydro-1H-pyrazol-4-yl)amino]-6-oxohexanoic acid

> <FORMULA>
C17H21N3O4

> <MASS>
331.36630

> <MONOISOTOPIC_MASS>
331.15321

> <CHARGE>
0

> <SMILES>
Cc1c(NC(=O)CCCCC(O)=O)c(=O)n(-c2ccccc2)n1C

> <INCHI>
InChI=1S/C17H21N3O4/c1-12-16(18-14(21)10-6-7-11-15(22)23)17(24)20(19(12)2)13-8-4-3-5-9-13/h3-5,8-9H,6-7,10-11H2,1-2H3,(H,18,21)(H,22,23)

> <INCHIKEY>
WQYHBTLOMGJLGK-UHFFFAOYSA-N

> <PUBMED_CITATION>
3425858

$$$$

Marvin  08031115292D          

 46 49  0  0  1  0            999 V2000
    6.5800   -3.3602    0.0000 C   0  0  1  0  0  0  0  0  0  0  0  0
    7.2946   -2.9477    0.0000 C   0  0  2  0  0  0  0  0  0  0  0  0
    6.5800   -4.1849    0.0000 O   0  0  0  0  0  0  0  0  0  0  0  0
    5.8656   -2.9477    0.0000 C   0  0  1  0  0  0  0  0  0  0  0  0
    7.2946   -2.1227    0.0000 C   0  0  1  0  0  0  0  0  0  0  0  0
    5.8656   -2.1227    0.0000 C   0  0  2  0  0  0  0  0  0  0  0  0
    5.1510   -3.3602    0.0000 O   0  0  0  0  0  0  0  0  0  0  0  0
    6.5800   -1.7102    0.0000 O   0  0  0  0  0  0  0  0  0  0  0  0
    8.0088   -1.7102    0.0000 O   0  0  0  0  0  0  0  0  0  0  0  0
    5.1510   -1.7102    0.0000 C   0  0  0  0  0  0  0  0  0  0  0  0
    8.0088   -3.3602    0.0000 N   0  0  0  0  0  0  0  0  0  0  0  0
    8.7234   -2.9477    0.0000 C   0  0  0  0  0  0  0  0  0  0  0  0
    9.4378   -3.3602    0.0000 C   0  0  0  0  0  0  0  0  0  0  0  0
    8.7234   -2.1227    0.0000 O   0  0  0  0  0  0  0  0  0  0  0  0
    5.1510   -0.8852    0.0000 O   0  0  0  0  0  0  0  0  0  0  0  0
    3.0077   -2.1224    0.0000 C   0  0  2  0  0  0  0  0  0  0  0  0
    3.0077   -2.9474    0.0000 C   0  0  1  0  0  0  0  0  0  0  0  0
    4.4366   -2.9477    0.0000 C   0  0  2  0  0  0  0  0  0  0  0  0
    4.4366   -2.1227    0.0000 O   0  0  0  0  0  0  0  0  0  0  0  0
    3.7222   -3.3599    0.0000 C   0  0  2  0  0  0  0  0  0  0  0  0
    3.7222   -1.7099    0.0000 C   0  0  2  0  0  0  0  0  0  0  0  0
    3.7221   -4.1849    0.0000 O   0  0  0  0  0  0  0  0  0  0  0  0
    2.2931   -3.3599    0.0000 O   0  0  0  0  0  0  0  0  0  0  0  0
    2.2933   -1.7102    0.0000 O   0  0  0  0  0  0  0  0  0  0  0  0
    3.7222   -0.8852    0.0000 C   0  0  0  0  0  0  0  0  0  0  0  0
    3.0078   -0.4727    0.0000 O   0  0  0  0  0  0  0  0  0  0  0  0
    5.8654   -5.4224    0.0000 O   0  0  0  0  0  0  0  0  0  0  0  0
    5.8654   -6.2474    0.0000 C   0  0  2  0  0  0  0  0  0  0  0  0
    6.5800   -5.0099    0.0000 C   0  0  2  0  0  0  0  0  0  0  0  0
    7.2944   -5.4224    0.0000 C   0  0  2  0  0  0  0  0  0  0  0  0
    7.2942   -6.2474    0.0000 C   0  0  1  0  0  0  0  0  0  0  0  0
    6.5798   -6.6599    0.0000 C   0  0  2  0  0  0  0  0  0  0  0  0
    8.0088   -5.0102    0.0000 O   0  0  0  0  0  0  0  0  0  0  0  0
    8.0088   -6.6602    0.0000 O   0  0  0  0  0  0  0  0  0  0  0  0
    6.5798   -7.4849    0.0000 O   0  0  0  0  0  0  0  0  0  0  0  0
    5.1509   -6.6599    0.0000 C   0  0  0  0  0  0  0  0  0  0  0  0
    2.2931   -4.1849    0.0000 O   0  0  0  0  0  0  0  0  0  0  0  0
    1.5787   -4.5974    0.0000 C   0  0  2  0  0  0  0  0  0  0  0  0
    3.0077   -4.5975    0.0000 C   0  0  2  0  0  0  0  0  0  0  0  0
    3.0077   -5.4224    0.0000 C   0  0  2  0  0  0  0  0  0  0  0  0
    2.2931   -5.8347    0.0000 C   0  0  1  0  0  0  0  0  0  0  0  0
    1.5787   -5.4224    0.0000 C   0  0  2  0  0  0  0  0  0  0  0  0
    3.7219   -5.8349    0.0000 O   0  0  0  0  0  0  0  0  0  0  0  0
    2.2931   -6.6600    0.0000 O   0  0  0  0  0  0  0  0  0  0  0  0
    0.8641   -5.8349    0.0000 O   0  0  0  0  0  0  0  0  0  0  0  0
    0.8643   -4.1849    0.0000 C   0  0  0  0  0  0  0  0  0  0  0  0
  1  2  1  0  0  0  0
  1  3  1  1  0  0  0
  1  4  1  0  0  0  0
  2  5  1  0  0  0  0
  2 11  1  6  0  0  0
  4  6  1  0  0  0  0
  4  7  1  6  0  0  0
  5  8  1  0  0  0  0
  5  9  1  1  0  0  0
  6 10  1  1  0  0  0
  6  8  1  0  0  0  0
 11 12  1  0  0  0  0
 12 13  1  0  0  0  0
 12 14  2  0  0  0  0
 10 15  1  0  0  0  0
 16 24  1  1  0  0  0
 17 16  1  0  0  0  0
 17 23  1  1  0  0  0
 18 19  1  0  0  0  0
 18 20  1  0  0  0  0
 20 17  1  0  0  0  0
 20 22  1  6  0  0  0
 21 16  1  0  0  0  0
 19 21  1  0  0  0  0
 21 25  1  1  0  0  0
 25 26  1  0  0  0  0
 18  7  1  1  0  0  0
 28 27  1  0  0  0  0
 29 27  1  0  0  0  0
 29  3  1  1  0  0  0
 29 30  1  0  0  0  0
 30 33  1  1  0  0  0
 30 31  1  0  0  0  0
 31 34  1  6  0  0  0
 31 32  1  0  0  0  0
 32 28  1  0  0  0  0
 32 35  1  6  0  0  0
 28 36  1  6  0  0  0
 38 37  1  0  0  0  0
 39 37  1  0  0  0  0
 39 22  1  1  0  0  0
 39 40  1  0  0  0  0
 40 43  1  1  0  0  0
 40 41  1  0  0  0  0
 41 44  1  6  0  0  0
 41 42  1  0  0  0  0
 42 38  1  0  0  0  0
 42 45  1  6  0  0  0
 38 46  1  6  0  0  0
M  END
> <ID>
CHEBI:59045

> <NAME>
alpha-L-Fucp-(1->2)-beta-D-Galp-(1->4)-[alpha-L-Fucp-(1->3)]-beta-D-GlcpNAc

> <DEFINITION>
A branched amino tetrasaccharide consisting of N-acetyl-β-D-glucosamine at the reducing end having an α-L-fucosyl residue attached at the 3-position and an α-L-fucosyl-(1→2)-β-D-galactosyl moiety attached at the 4-position. A cancer-associated tetrasaccharide antigen which constitutes the core structure recognised by therapeutic antibody BR96. Conformational restriction around the GlcNAc residue is a key feature of its structure.

> <STAR>
3

> <SECONDARY_ID>
CHEBI:60518

> <SYNONYM>
Le(y); Lewis Y tetrasaccharide; Lewis Y; Fucalpha1-3(Fucalpha1-2Galbeta1-4)GclNAc; Fucalpha1-2Galbeta1-4(Fucalpha1-3)GlcNAcbeta; Fucalpha1-2Galbeta1-4(Fucalpha1-3)GlcNAc; Fuca1-2Galb1-4(Fuca1-3)GlcNAcb; alpha-L-fucosyl-(1->2)-beta-D-galactosyl-(1->4)-[alpha-L-fucosyl-(1->3)]-N-acetyl-beta-D-glucosamine; alpha-L-fucopyranosyl-(1->2)-beta-D-galactopyranosyl-(1->4)-[alpha-L-fucopyranosyl-(1->3)]-2-acetamido-2-deoxy-beta-D-glucopyranose; alpha-L-Fuc-(1->2)-beta-D-Gal-(1->4)-[alpha-L-Fuc-(1->3)]-beta-D-GlcNAc; alpha-Fuc-(1->2)-beta-Gal-(1->4)-[alpha-Fuc-(1->3)]-beta-GlcNAc; 6-deoxy-alpha-L-galactopyranosyl-(1->3)-[6-deoxy-alpha-L-galactopyranosyl-(1->2)-beta-D-galactopyranosyl-(1->4)]-2-acetamido-2-deoxy-beta-D-glucopyranose

> <IUPAC_NAME>
alpha-L-fucopyranosyl-(1->3)-[alpha-L-fucopyranosyl-(1->2)-beta-D-galactopyranosyl-(1->4)]-2-acetamido-2-deoxy-beta-D-glucopyranose

> <FORMULA>
C26H45NO19

> <MASS>
675.63080

> <MONOISOTOPIC_MASS>
675.25858

> <CHARGE>
0

> <SMILES>
C[C@@H]1O[C@@H](O[C@@H]2[C@@H](O)[C@@H](O)[C@@H](CO)O[C@H]2O[C@@H]2[C@@H](CO)O[C@@H](O)[C@H](NC(C)=O)[C@H]2O[C@@H]2O[C@@H](C)[C@@H](O)[C@@H](O)[C@@H]2O)[C@@H](O)[C@H](O)[C@@H]1O

> <INCHI>
InChI=1S/C26H45NO19/c1-6-12(31)15(34)18(37)24(40-6)45-21-11(27-8(3)30)23(39)42-10(5-29)20(21)44-26-22(17(36)14(33)9(4-28)43-26)46-25-19(38)16(35)13(32)7(2)41-25/h6-7,9-26,28-29,31-39H,4-5H2,1-3H3,(H,27,30)/t6-,7-,9+,10+,11+,12+,13+,14-,15+,16+,17-,18-,19-,20+,21+,22+,23+,24-,25-,26-/m0/s1

> <INCHIKEY>
SRHNADOZAAWYLV-XLMUYGLTSA-N

> <PUBMED_CITATION>
15388363; 17386027; 19443021; 2466830; 25416440; 25568069; 25726913; 25799278; 26492616; 26609483; 31537530; 7664109; 8737251

$$$$

Marvin  03221010262D          

 16 16  0  0  0  0            999 V2000
   -1.1786    0.5009    0.0000 C   0  0  0  0  0  0  0  0  0  0  0  0
   -1.8930    0.0884    0.0000 C   0  0  0  0  0  0  0  0  0  0  0  0
   -1.8930   -0.7366    0.0000 C   0  0  0  0  0  0  0  0  0  0  0  0
   -1.1786   -1.1491    0.0000 C   0  0  0  0  0  0  0  0  0  0  0  0
   -0.4641   -0.7366    0.0000 C   0  0  0  0  0  0  0  0  0  0  0  0
   -0.4641    0.0884    0.0000 C   0  0  0  0  0  0  0  0  0  0  0  0
   -1.1786    1.3259    0.0000 O   0  0  0  0  0  0  0  0  0  0  0  0
    0.2504    0.5009    0.0000 N   0  3  0  0  0  0  0  0  0  0  0  0
    0.2504   -1.1491    0.0000 N   0  3  0  0  0  0  0  0  0  0  0  0
   -2.6075    0.5009    0.0000 N   0  3  0  0  0  0  0  0  0  0  0  0
    0.2504    1.3259    0.0000 O   0  0  0  0  0  0  0  0  0  0  0  0
    0.9648    0.0884    0.0000 O   0  5  0  0  0  0  0  0  0  0  0  0
    0.2504   -1.9741    0.0000 O   0  5  0  0  0  0  0  0  0  0  0  0
    0.9648   -0.7366    0.0000 O   0  0  0  0  0  0  0  0  0  0  0  0
   -2.6075    1.3259    0.0000 O   0  0  0  0  0  0  0  0  0  0  0  0
   -3.3220    0.0884    0.0000 O   0  5  0  0  0  0  0  0  0  0  0  0
  1  2  1  0  0  0  0
  1  6  2  0  0  0  0
  2  3  2  0  0  0  0
  3  4  1  0  0  0  0
  4  5  2  0  0  0  0
  5  6  1  0  0  0  0
  1  7  1  0  0  0  0
  6  8  1  0  0  0  0
  5  9  1  0  0  0  0
  2 10  1  0  0  0  0
  8 11  2  0  0  0  0
  8 12  1  0  0  0  0
  9 13  1  0  0  0  0
  9 14  2  0  0  0  0
 10 15  2  0  0  0  0
 10 16  1  0  0  0  0
M  CHG  6   8   1   9   1  10   1  12  -1  13  -1  16  -1
M  END
> <ID>
CHEBI:59049

> <NAME>
2,3,6-trinitrophenol

> <DEFINITION>
Phenol substituted with nitro groups at both ortho-positions and at the meta-position.

> <STAR>
3

> <IUPAC_NAME>
2,3,6-trinitrophenol

> <FORMULA>
C6H3N3O7

> <MASS>
229.10390

> <MONOISOTOPIC_MASS>
228.99710

> <CHARGE>
0

> <SMILES>
Oc1c(ccc(c1[N+]([O-])=O)[N+]([O-])=O)[N+]([O-])=O

> <INCHI>
InChI=1S/C6H3N3O7/c10-6-4(8(13)14)2-1-3(7(11)12)5(6)9(15)16/h1-2,10H

> <INCHIKEY>
UPOHJPYGIYINKG-UHFFFAOYSA-N

> <BEILSTEIN_REGISTRY_NUMBER>
3149687

> <REAXYS_REGISTRY_NUMBER>
3149687

$$$$

Marvin  04191010152D          

 48 51  0  0  1  0            999 V2000
   10.8765   -6.4269    0.0000 C   0  0  1  0  0  0  0  0  0  0  0  0
   10.2060   -6.0078    0.0000 C   0  0  2  0  0  0  0  0  0  0  0  0
   11.5750   -6.0078    0.0000 C   0  0  2  0  0  0  0  0  0  0  0  0
   10.2060   -5.1696    0.0000 C   0  0  2  0  0  0  0  0  0  0  0  0
    9.4796   -6.3989    0.0000 O   0  0  0  0  0  0  0  0  0  0  0  0
   11.5750   -5.1696    0.0000 C   0  0  1  0  0  0  0  0  0  0  0  0
   12.2735   -6.4269    0.0000 O   0  0  0  0  0  0  0  0  0  0  0  0
   10.8765   -4.7784    0.0000 O   0  0  0  0  0  0  0  0  0  0  0  0
    9.4796   -4.7784    0.0000 C   0  0  0  0  0  0  0  0  0  0  0  0
    8.7532   -6.8459    0.0000 C   0  0  1  0  0  0  0  0  0  0  0  0
   12.2735   -4.7784    0.0000 O   0  0  0  0  0  0  0  0  0  0  0  0
    8.7532   -7.6841    0.0000 C   0  0  1  0  0  0  0  0  0  0  0  0
    8.0268   -6.4269    0.0000 O   0  0  0  0  0  0  0  0  0  0  0  0
   12.9719   -4.3594    0.0000 C   0  0  2  0  0  0  0  0  0  0  0  0
    8.0268   -8.1032    0.0000 C   0  0  2  0  0  0  0  0  0  0  0  0
    9.4796   -8.1032    0.0000 N   0  0  0  0  0  0  0  0  0  0  0  0
    7.3004   -6.8459    0.0000 C   0  0  1  0  0  0  0  0  0  0  0  0
   12.9719   -3.5771    0.0000 C   0  0  2  0  0  0  0  0  0  0  0  0
   13.6984   -4.7784    0.0000 C   0  0  1  0  0  0  0  0  0  0  0  0
    7.3004   -7.6841    0.0000 C   0  0  2  0  0  0  0  0  0  0  0  0
    8.0268   -8.8855    0.0000 O   0  0  0  0  0  0  0  0  0  0  0  0
    9.4796   -8.9134    0.0000 C   0  0  0  0  0  0  0  0  0  0  0  0
    6.5739   -6.4548    0.0000 C   0  0  0  0  0  0  0  0  0  0  0  0
   13.6984   -3.1580    0.0000 O   0  0  0  0  0  0  0  0  0  0  0  0
   12.2735   -3.1580    0.0000 C   0  0  0  0  0  0  0  0  0  0  0  0
   14.3968   -4.3594    0.0000 C   0  0  2  0  0  0  0  0  0  0  0  0
   13.6705   -5.5887    0.0000 O   0  0  0  0  0  0  0  0  0  0  0  0
    6.5739   -8.1032    0.0000 O   0  0  0  0  0  0  0  0  0  0  0  0
   10.2060   -9.3325    0.0000 C   0  0  0  0  0  0  0  0  0  0  0  0
    8.7532   -9.3325    0.0000 O   0  0  0  0  0  0  0  0  0  0  0  0
   14.3968   -3.5771    0.0000 C   0  0  2  0  0  0  0  0  0  0  0  0
   15.1233   -4.7784    0.0000 O   0  0  0  0  0  0  0  0  0  0  0  0
   15.1233   -3.1580    0.0000 O   0  0  0  0  0  0  0  0  0  0  0  0
   11.5471   -3.5491    0.0000 O   0  0  0  0  0  0  0  0  0  0  0  0
    8.7532   -5.2254    0.0000 O   0  0  0  0  0  0  0  0  0  0  0  0
    5.8755   -6.9018    0.0000 O   0  0  0  0  0  0  0  0  0  0  0  0
    6.6298  -11.3441    0.0000 O   0  0  0  0  0  0  0  0  0  0  0  0
    6.6298  -10.5339    0.0000 C   0  0  1  0  0  0  0  0  0  0  0  0
    5.9034  -10.1148    0.0000 C   0  0  2  0  0  0  0  0  0  0  0  0
    7.3283  -10.1148    0.0000 C   0  0  2  0  0  0  0  0  0  0  0  0
    5.9034   -9.3045    0.0000 C   0  0  2  0  0  0  0  0  0  0  0  0
    5.2050  -10.5059    0.0000 O   0  0  0  0  0  0  0  0  0  0  0  0
    7.3283   -9.3045    0.0000 C   0  0  1  0  0  0  0  0  0  0  0  0
    6.6298   -8.9134    0.0000 O   0  0  0  0  0  0  0  0  0  0  0  0
    5.2050   -8.9134    0.0000 C   0  0  0  0  0  0  0  0  0  0  0  0
    8.0827  -10.5339    0.0000 O   0  0  0  0  0  0  0  0  0  0  0  0
    5.2050   -8.0752    0.0000 O   0  0  0  0  0  0  0  0  0  0  0  0
   10.8689   -7.2650    0.0000 O   0  0  0  0  0  0  0  0  0  0  0  0
  1  2  1  0  0  0  0
  1  3  1  0  0  0  0
  2  4  1  0  0  0  0
  2  5  1  1  0  0  0
  3  6  1  0  0  0  0
  3  7  1  6  0  0  0
  4  8  1  0  0  0  0
  4  9  1  1  0  0  0
 10  5  1  1  0  0  0
  6 11  1  1  0  0  0
 10 12  1  0  0  0  0
 10 13  1  0  0  0  0
 14 11  1  6  0  0  0
 12 15  1  0  0  0  0
 12 16  1  6  0  0  0
 13 17  1  0  0  0  0
 14 18  1  0  0  0  0
 14 19  1  0  0  0  0
 15 20  1  0  0  0  0
 15 21  1  1  0  0  0
 16 22  1  0  0  0  0
 17 23  1  1  0  0  0
 18 24  1  0  0  0  0
 18 25  1  1  0  0  0
 19 26  1  0  0  0  0
 19 27  1  1  0  0  0
 20 28  1  1  0  0  0
 22 29  1  0  0  0  0
 22 30  2  0  0  0  0
 24 31  1  0  0  0  0
 26 32  1  6  0  0  0
 31 33  1  1  0  0  0
  6  8  1  0  0  0  0
 17 20  1  0  0  0  0
 26 31  1  0  0  0  0
 25 34  1  0  0  0  0
  9 35  1  0  0  0  0
 23 36  1  0  0  0  0
 38 37  1  1  0  0  0
 38 39  1  0  0  0  0
 38 40  1  0  0  0  0
 39 41  1  0  0  0  0
 39 42  1  1  0  0  0
 40 43  1  0  0  0  0
 41 44  1  0  0  0  0
 41 45  1  1  0  0  0
 43 21  1  1  0  0  0
 43 44  1  0  0  0  0
 40 46  1  6  0  0  0
 45 47  1  0  0  0  0
  1 48  1  1  0  0  0
M  END
> <ID>
CHEBI:59216

> <NAME>
beta-D-Galp-(1->3)-beta-D-GlcpNAc-(1->4)-beta-D-Galp-(1->4)-beta-D-Glcp

> <DEFINITION>
An amino tetrasaccharide consisting of β-D-galactose, N-acetyl-β-D-galactosamine, β-D-galactose and β-D-glucose residues in a linear (1→3), (1→4), (1→4) sequence.

> <STAR>
3

> <SYNONYM>
O-(beta-D-galactopyranosyl)-(1->3)-O-(2-acetamido-2-desoxy-beta-D-galactopyranosyl)-(1->4)-O-(beta-D-galactopyranosyl)-(1->4)-beta-D-glucopyranose; Galbeta1-3GalNAcbeta1-4Galbeta1-4Glcbeta; Galb1-3GalNAcb1-4Galb1-4Glcb; GA1 carbohydrate moiety; beta-D-galactosyl-(1->3)-N-acetyl-beta-D-galactosaminyl-(1->4)-beta-D-galactosyl-(1->4)-beta-D-glucose; beta-D-Gal-(1->3)-beta-D-GlcNAc-(1->4)-beta-D-Gal-(1->4)-beta-D-Glc

> <IUPAC_NAME>
beta-D-galactopyranosyl-(1->3)-2-acetamido-2-deoxy-beta-D-galactopyranosyl-(1->4)-beta-D-galactopyranosyl-(1->4)-beta-D-glucopyranose

> <FORMULA>
C26H45NO21

> <MASS>
707.62960

> <MONOISOTOPIC_MASS>
707.24841

> <CHARGE>
0

> <SMILES>
CC(=O)N[C@H]1[C@@H](O[C@H](CO)[C@H](O)[C@@H]1O[C@@H]1O[C@H](CO)[C@H](O)[C@H](O)[C@H]1O)O[C@@H]1[C@H](O)[C@@H](O)[C@@H](O[C@@H]1CO)O[C@H]1[C@H](O)[C@@H](O)[C@H](O)O[C@@H]1CO

> <INCHI>
InChI=1S/C26H45NO21/c1-6(32)27-11-22(48-25-18(39)14(35)12(33)7(2-28)44-25)13(34)8(3-29)43-24(11)46-21-10(5-31)45-26(19(40)16(21)37)47-20-9(4-30)42-23(41)17(38)15(20)36/h7-26,28-31,33-41H,2-5H2,1H3,(H,27,32)/t7-,8-,9-,10-,11-,12+,13+,14+,15-,16-,17-,18-,19-,20-,21+,22-,23-,24+,25+,26+/m1/s1

> <INCHIKEY>
HCXIEPLIUZXCMD-KKFLNDMKSA-N

> <BEILSTEIN_REGISTRY_NUMBER>
5721191

> <PUBMED_CITATION>
11854201; 19443021; 25568069; 31537530

$$$$

Ketcher 11091615492D 1   1.00000     0.00000     0

 37 38  0     1  0            999 V2000
   21.2870    0.8048    0.0000 O   0  0  0  0  0  0  0  0  0  0  0  0
   20.4593    0.3269    0.0000 C   0  0  0  0  0  0  0  0  0  0  0  0
   20.4593   -0.6290    0.0000 C   0  0  0  0  0  0  0  0  0  0  0  0
   21.2870   -1.1069    0.0000 C   0  0  0  0  0  0  0  0  0  0  0  0
   22.1147   -0.6290    0.0000 C   0  0  0  0  0  0  0  0  0  0  0  0
   22.1147    0.3269    0.0000 C   0  0  0  0  0  0  0  0  0  0  0  0
   22.9424    0.8048    0.0000 O   0  0  0  0  0  0  0  0  0  0  0  0
   19.6315   -1.1069    0.0000 N   0  0  0  0  0  0  0  0  0  0  0  0
   23.0577   -2.3223    0.0000 O   0  0  0  0  0  0  0  0  0  0  0  0
   21.2870   -2.0625    0.0000 O   0  0  0  0  0  0  0  0  0  0  0  0
   19.6315    0.8048    0.0000 C   0  0  0  0  0  0  0  0  0  0  0  0
   18.8039   -0.6290    0.0000 C   0  0  0  0  0  0  0  0  0  0  0  0
   17.9762   -1.1069    0.0000 C   0  0  0  0  0  0  0  0  0  0  0  0
   17.1483   -0.6290    0.0000 C   0  0  0  0  0  0  0  0  0  0  0  0
   18.8039    0.3268    0.0000 O   0  0  0  0  0  0  0  0  0  0  0  0
   17.9762   -2.0625    0.0000 O   0  0  0  0  0  0  0  0  0  0  0  0
   16.3208   -1.1069    0.0000 C   0  0  0  0  0  0  0  0  0  0  0  0
   15.4930   -0.6290    0.0000 O   0  0  0  0  0  0  0  0  0  0  0  0
   21.3322   -3.2333    0.0000 O   0  0  0  0  0  0  0  0  0  0  0  0
   20.5045   -3.7112    0.0000 C   0  0  0  0  0  0  0  0  0  0  0  0
   20.5045   -4.6671    0.0000 C   0  0  0  0  0  0  0  0  0  0  0  0
   21.3322   -5.1450    0.0000 C   0  0  0  0  0  0  0  0  0  0  0  0
   22.1597   -4.6671    0.0000 C   0  0  0  0  0  0  0  0  0  0  0  0
   22.1597   -3.7112    0.0000 C   0  0  0  0  0  0  0  0  0  0  0  0
   19.6767   -5.1450    0.0000 N   0  0  0  0  0  0  0  0  0  0  0  0
   22.9876   -5.1450    0.0000 O   0  0  0  0  0  0  0  0  0  0  0  0
   21.3322   -6.1008    0.0000 O   0  0  0  0  0  0  0  0  0  0  0  0
   19.6767   -3.2333    0.0000 C   0  0  0  0  0  0  0  0  0  0  0  0
   18.8490   -4.6671    0.0000 C   0  0  0  0  0  0  0  0  0  0  0  0
   18.0213   -5.1450    0.0000 C   0  0  0  0  0  0  0  0  0  0  0  0
   17.1936   -4.6671    0.0000 C   0  0  0  0  0  0  0  0  0  0  0  0
   18.8490   -3.7113    0.0000 O   0  0  0  0  0  0  0  0  0  0  0  0
   18.0213   -6.1008    0.0000 O   0  0  0  0  0  0  0  0  0  0  0  0
   16.3659   -5.1450    0.0000 C   0  0  0  0  0  0  0  0  0  0  0  0
   15.5382   -4.6671    0.0000 O   0  0  0  0  0  0  0  0  0  0  0  0
   22.9876   -6.1008    0.0000 C   0  0  0  0  0  0  0  0  0  0  0  0
   23.7701    0.3269    0.0000 C   0  0  0  0  0  0  0  0  0  0  0  0
  1  2  1  0     0  0
  1  6  1  0     0  0
  2  3  1  0     0  0
  3  4  1  0     0  0
  4  5  1  0     0  0
  5  6  1  0     0  0
  6  7  1  6     0  0
  3  8  1  6     0  0
  5  9  1  1     0  0
  4 10  1  1     0  0
  2 11  1  1     0  0
  8 12  1  0     0  0
 12 13  1  0     0  0
 13 14  1  0     0  0
 12 15  2  0     0  0
 13 16  1  1     0  0
 14 17  1  0     0  0
 17 18  1  0     0  0
 19 20  1  0     0  0
 19 24  1  0     0  0
 20 21  1  0     0  0
 21 22  1  0     0  0
 22 23  1  0     0  0
 23 24  1  0     0  0
 24  9  1  6     0  0
 21 25  1  6     0  0
 23 26  1  1     0  0
 22 27  1  1     0  0
 20 28  1  1     0  0
 25 29  1  0     0  0
 29 30  1  0     0  0
 30 31  1  0     0  0
 29 32  2  0     0  0
 30 33  1  1     0  0
 31 34  1  0     0  0
 34 35  1  0     0  0
 26 36  1  0     0  0
  7 37  1  0     0  0
M  END
> <ID>
CHEBI:59241

> <NAME>
4,6-dideoxy-4-(3-deoxy-L-glycero-tetronamido)-alpha-D-Manp2Me-(1->2)-4,6-dideoxy-4-(3-deoxy-L-glycero-tetronamido)-alpha-D-ManpOMe

> <DEFINITION>
An amido disaccharide fragment which mimicks the terminus of the O-polysaccharide of Vibrio cholerae O:1, serotype Ogawa (PDB entry: 1F4Y).

> <STAR>
3

> <SECONDARY_ID>
CHEBI:43953; CHEBI:52951

> <SYNONYM>
Vibrio Cholerae O1, serotype Ogawa disaccharide; 4,6-dideoxy-4-(3-deoxy-L-glycero-tetronamido)-2-O-methyl-alpha-D-mannopyranosyl-(1->2)-4,6-dideoxy-4-(3-deoxy-L-glycero-tetronamido)-alpha-D-mannopyranose; 4,6-dideoxy-4-(3-deoxy-D-glycero-tetronamido)-alpha-D-Man2Me-(1->2)-4,6-dideoxy-4-(3-deoxy-D-glycero-tetronamido)-alpha-D-ManOMe; 2-O-[2-O-METHYL-4-[2,4-DIHYDROXY-BUTYRAMIDO]-4,6-DIDEOXY-]-ALPHA-D-MANNOPYRANOSYL-[1-O-METHYL-4-[2,4-DIHYDROXY-BUTYRAMIDO]-4,6-DIDEOXY]-ALPHA-D-MANNOPYRANOSE

> <IUPAC_NAME>
methyl 4,6-dideoxy-2-O-{4,6-dideoxy-4-[(2S)-2,4-dihydroxybutanamido]-2-O-methyl-alpha-D-mannopyranosyl}-4-[(2S)-2,4-dihydroxybutanamido]-alpha-D-mannopyranoside

> <FORMULA>
C22H40N2O13

> <MASS>
540.559

> <MONOISOTOPIC_MASS>
540.25304

> <CHARGE>
0

> <SMILES>
O1[C@@H]([C@H]([C@@H]([C@@H]([C@H]1OC)O[C@H]2O[C@@H]([C@H]([C@@H]([C@@H]2OC)O)NC([C@H](CCO)O)=O)C)O)NC([C@H](CCO)O)=O)C

> <INCHI>
InChI=1S/C22H40N2O13/c1-9-14(24-20(32)12(28)6-8-26)16(30)18(21(34-4)35-9)37-22-17(33-3)15(29)13(10(2)36-22)23-19(31)11(27)5-7-25/h9-18,21-22,25-30H,5-8H2,1-4H3,(H,23,31)(H,24,32)/t9-,10-,11+,12+,13-,14-,15+,16+,17+,18+,21+,22-/m1/s1

> <INCHIKEY>
VSIAYRYJKYLITD-JNHSWAMUSA-N

> <REAXYS_REGISTRY_NUMBER>
7504471

> <PDBECHEM_ACCESSION>
MGU

> <PUBMED_CITATION>
8839176; 10880560; 16098493

$$$$

Marvin  04211009342D          

 26 27  0  0  0  0            999 V2000
   12.8038   -4.7023    0.0000 C   0  0  0  0  0  0  0  0  0  0  0  0
   13.5182   -5.1149    0.0000 C   0  0  0  0  0  0  0  0  0  0  0  0
   13.5183   -5.9399    0.0000 C   0  0  0  0  0  0  0  0  0  0  0  0
   12.8039   -6.3524    0.0000 C   0  0  0  0  0  0  0  0  0  0  0  0
   12.0894   -5.9398    0.0000 C   0  0  0  0  0  0  0  0  0  0  0  0
   12.0894   -5.1148    0.0000 C   0  0  0  0  0  0  0  0  0  0  0  0
   11.3750   -6.3523    0.0000 N   0  0  0  0  0  0  0  0  0  0  0  0
   10.6605   -5.9398    0.0000 C   0  0  0  0  0  0  0  0  0  0  0  0
    9.9461   -6.3522    0.0000 N   0  0  0  0  0  0  0  0  0  0  0  0
    9.2317   -5.9397    0.0000 C   0  0  0  0  0  0  0  0  0  0  0  0
    8.5173   -6.3522    0.0000 C   0  0  0  0  0  0  0  0  0  0  0  0
    7.8031   -5.9401    0.0000 C   0  0  0  0  0  0  0  0  0  0  0  0
    7.8030   -5.1151    0.0000 C   0  0  0  0  0  0  0  0  0  0  0  0
    8.5175   -4.7026    0.0000 C   0  0  0  0  0  0  0  0  0  0  0  0
    9.2319   -5.1152    0.0000 C   0  0  0  0  0  0  0  0  0  0  0  0
    7.0886   -4.7025    0.0000 Cl  0  0  0  0  0  0  0  0  0  0  0  0
   10.6605   -5.1147    0.0000 O   0  0  0  0  0  0  0  0  0  0  0  0
   14.2326   -4.7024    0.0000 Cl  0  0  0  0  0  0  0  0  0  0  0  0
   14.2328   -6.3524    0.0000 C   0  0  0  0  0  0  0  0  0  0  0  0
   14.2329   -7.1774    0.0000 F   0  0  0  0  0  0  0  0  0  0  0  0
   14.9473   -5.9398    0.0000 F   0  0  0  0  0  0  0  0  0  0  0  0
   14.9473   -6.7649    0.0000 F   0  0  0  0  0  0  0  0  0  0  0  0
    7.0887   -6.3527    0.0000 C   0  0  0  0  0  0  0  0  0  0  0  0
    6.3742   -5.9404    0.0000 F   0  0  0  0  0  0  0  0  0  0  0  0
    7.0889   -7.1777    0.0000 F   0  0  0  0  0  0  0  0  0  0  0  0
    6.3743   -6.7652    0.0000 F   0  0  0  0  0  0  0  0  0  0  0  0
  1  2  1  0  0  0  0
  1  6  2  0  0  0  0
  2  3  2  0  0  0  0
  2 18  1  0  0  0  0
  3  4  1  0  0  0  0
  4  5  2  0  0  0  0
  5  6  1  0  0  0  0
  5  7  1  0  0  0  0
  7  8  1  0  0  0  0
  8  9  1  0  0  0  0
  8 17  2  0  0  0  0
  9 10  1  0  0  0  0
 10 11  1  0  0  0  0
 10 15  2  0  0  0  0
 11 12  2  0  0  0  0
 12 13  1  0  0  0  0
 13 14  2  0  0  0  0
 13 16  1  0  0  0  0
 14 15  1  0  0  0  0
  3 19  1  0  0  0  0
 19 20  1  0  0  0  0
 19 21  1  0  0  0  0
 19 22  1  0  0  0  0
 12 23  1  0  0  0  0
 23 24  1  0  0  0  0
 23 25  1  0  0  0  0
 23 26  1  0  0  0  0
M  END
> <ID>
CHEBI:59242

> <NAME>
flucofuron

> <DEFINITION>
A member of the class of phenylureas that is urea in which each nitrogen is substituted by a 4-chloro-3-(trifluoromethyl)phenyl group.

> <STAR>
3

> <SYNONYM>
1,3-bis[4-chloro-3-(trifluoromethyl)phenyl]urea; 1,3-Bis(4-chloro-alpha,alpha,alpha-trifluoro-m-tolyl)urea; 1,3-bis(4-chloro-alpha,alpha,alpha-trifluoro-m-tolyl)urea

> <IUPAC_NAME>
N,N'-bis[4-chloro-3-(trifluoromethyl)phenyl]urea

> <FORMULA>
C15H8Cl2F6N2O

> <MASS>
417.13300

> <MONOISOTOPIC_MASS>
415.99179

> <CHARGE>
0

> <SMILES>
FC(F)(F)c1cc(NC(=O)Nc2ccc(Cl)c(c2)C(F)(F)F)ccc1Cl

> <INCHI>
InChI=1S/C15H8Cl2F6N2O/c16-11-3-1-7(5-9(11)14(18,19)20)24-13(26)25-8-2-4-12(17)10(6-8)15(21,22)23/h1-6H,(H2,24,25,26)

> <INCHIKEY>
ABOVRDBEJDIBMZ-UHFFFAOYSA-N

> <BEILSTEIN_REGISTRY_NUMBER>
2189316

> <CAS_REGISTRY_NUMBER>
370-50-3

> <REAXYS_REGISTRY_NUMBER>
2189316

> <CHEMIDPLUS>
370-50-3

> <PESTICIDES_ACCESSION>
flucofuron

> <PUBMED_CITATION>
8841454

$$$$

Ketcher 08191618232D 1   1.00000     0.00000     0

 12 12  0     0  0            999 V2000
   14.2441   -8.2150    0.0000 C   0  0  0  0  0  0  0  0  0  0  0  0
   14.2441   -9.1897    0.0000 C   0  0  0  0  0  0  0  0  0  0  0  0
   13.3998   -7.7276    0.0000 C   0  0  0  0  0  0  0  0  0  0  0  0
   13.3998   -9.6771    0.0000 C   0  0  0  0  0  0  0  0  0  0  0  0
   12.5558   -8.2150    0.0000 C   0  0  0  0  0  0  0  0  0  0  0  0
   12.5558   -9.1897    0.0000 C   0  0  0  0  0  0  0  0  0  0  0  0
   13.3998   -6.7528    0.0000 N   0  0  0  0  0  0  0  0  0  0  0  0
   13.3998  -10.6518    0.0000 Cl  0  0  0  0  0  0  0  0  0  0  0  0
   15.0882   -9.6771    0.0000 C   0  0  0  0  0  0  0  0  0  0  0  0
   15.0802  -10.7577    0.0000 F   0  0  0  0  0  0  0  0  0  0  0  0
   16.0490  -10.1705    0.0000 F   0  0  0  0  0  0  0  0  0  0  0  0
   15.8785   -8.9608    0.0000 F   0  0  0  0  0  0  0  0  0  0  0  0
  2  1  1  0     0  0
  3  1  2  0     0  0
  4  2  2  0     0  0
  5  3  1  0     0  0
  6  4  1  0     0  0
  6  5  2  0     0  0
  3  7  1  0     0  0
  4  8  1  0     0  0
  2  9  1  0     0  0
  9 10  1  0     0  0
  9 11  1  0     0  0
  9 12  1  0     0  0
M  END
> <ID>
CHEBI:59245

> <NAME>
5-amino-2-chlorobenzotrifluoride

> <DEFINITION>
A monochlorobenzene that is the 3-trifluoromethyl derivative of 4-chloroaniline.

> <STAR>
3

> <SYNONYM>
ACBT; 6-Chloro-3-aminobenzotrifluoride; 5-Amino-2-chlorobenzotrifluoride; 4-chloro-alpha,alpha,alpha-trifluoro-m-toluidine; 4-chloro-3-(trifluoromethyl)benzenamine; 4-Chloro-3-(trifluoromethyl)aniline; 3-(Trifluoromethyl)-4-chloroaniline

> <IUPAC_NAME>
4-chloro-3-(trifluoromethyl)aniline

> <FORMULA>
C7H5ClF3N

> <MASS>
195.570

> <MONOISOTOPIC_MASS>
195.00626

> <CHARGE>
0

> <SMILES>
C=1C(=C(C=CC1N)Cl)C(F)(F)F

> <INCHI>
InChI=1S/C7H5ClF3N/c8-6-2-1-4(12)3-5(6)7(9,10)11/h1-3H,12H2

> <INCHIKEY>
ASPDJZINBYYZRU-UHFFFAOYSA-N

> <BEILSTEIN_REGISTRY_NUMBER>
641588

> <CAS_REGISTRY_NUMBER>
320-51-4

> <GMELIN_REGISTRY_NUMBER>
1778143

> <REAXYS_REGISTRY_NUMBER>
641588

> <CHEMIDPLUS>
320-51-4

> <NIST_CHEMISTRY_WEBBOOK>
320-51-4

> <PUBMED_CITATION>
8841454

$$$$

Marvin  04211011122D          

 31 33  0  0  0  0            999 V2000
   12.8038   -4.7023    0.0000 C   0  0  0  0  0  0  0  0  0  0  0  0
   13.5182   -5.1149    0.0000 C   0  0  0  0  0  0  0  0  0  0  0  0
   13.5183   -5.9399    0.0000 C   0  0  0  0  0  0  0  0  0  0  0  0
   12.8039   -6.3524    0.0000 C   0  0  0  0  0  0  0  0  0  0  0  0
   12.0894   -5.9398    0.0000 C   0  0  0  0  0  0  0  0  0  0  0  0
   12.0894   -5.1148    0.0000 C   0  0  0  0  0  0  0  0  0  0  0  0
   11.3750   -6.3523    0.0000 N   0  0  0  0  0  0  0  0  0  0  0  0
   10.6605   -5.9398    0.0000 C   0  0  0  0  0  0  0  0  0  0  0  0
    9.9461   -6.3522    0.0000 N   0  0  0  0  0  0  0  0  0  0  0  0
    9.2317   -5.9397    0.0000 C   0  0  0  0  0  0  0  0  0  0  0  0
    8.5173   -6.3522    0.0000 C   0  0  0  0  0  0  0  0  0  0  0  0
    7.8031   -5.9401    0.0000 C   0  0  0  0  0  0  0  0  0  0  0  0
    7.8030   -5.1151    0.0000 C   0  0  0  0  0  0  0  0  0  0  0  0
    8.5175   -4.7026    0.0000 C   0  0  0  0  0  0  0  0  0  0  0  0
    9.2319   -5.1152    0.0000 C   0  0  0  0  0  0  0  0  0  0  0  0
   10.6605   -5.1147    0.0000 O   0  0  0  0  0  0  0  0  0  0  0  0
   14.2326   -4.7024    0.0000 Cl  0  0  0  0  0  0  0  0  0  0  0  0
   14.2328   -6.3524    0.0000 Cl  0  0  0  0  0  0  0  0  0  0  0  0
    7.0887   -6.3527    0.0000 Cl  0  0  0  0  0  0  0  0  0  0  0  0
    9.9465   -4.7028    0.0000 O   0  0  0  0  0  0  0  0  0  0  0  0
    9.9465   -3.8778    0.0000 C   0  0  0  0  0  0  0  0  0  0  0  0
    9.9371   -2.2278    0.0000 C   0  0  0  0  0  0  0  0  0  0  0  0
    9.2250   -2.6444    0.0000 C   0  0  0  0  0  0  0  0  0  0  0  0
    9.2297   -3.4694    0.0000 C   0  0  0  0  0  0  0  0  0  0  0  0
   10.6586   -3.4613    0.0000 C   0  0  0  0  0  0  0  0  0  0  0  0
   10.6539   -2.6363    0.0000 C   0  0  0  0  0  0  0  0  0  0  0  0
   11.3730   -3.8738    0.0000 S   0  0  0  0  0  0  0  0  0  0  0  0
   12.0875   -3.4613    0.0000 O   0  0  0  0  0  0  0  0  0  0  0  0
   10.9606   -4.5883    0.0000 O   0  0  0  0  0  0  0  0  0  0  0  0
   11.7855   -4.5883    0.0000 O   0  0  0  0  0  0  0  0  0  0  0  0
    9.9325   -1.4028    0.0000 Cl  0  0  0  0  0  0  0  0  0  0  0  0
  1  2  2  0  0  0  0
  1  6  1  0  0  0  0
  2  3  1  0  0  0  0
  2 17  1  0  0  0  0
  3  4  2  0  0  0  0
  4  5  1  0  0  0  0
  5  6  2  0  0  0  0
  5  7  1  0  0  0  0
  7  8  1  0  0  0  0
  8  9  1  0  0  0  0
  8 16  2  0  0  0  0
  9 10  1  0  0  0  0
 10 11  2  0  0  0  0
 10 15  1  0  0  0  0
 11 12  1  0  0  0  0
 12 13  2  0  0  0  0
 13 14  1  0  0  0  0
 14 15  2  0  0  0  0
  3 18  1  0  0  0  0
 12 19  1  0  0  0  0
 15 20  1  0  0  0  0
 20 21  1  0  0  0  0
 24 21  2  0  0  0  0
 21 25  1  0  0  0  0
 22 23  2  0  0  0  0
 23 24  1  0  0  0  0
 25 26  2  0  0  0  0
 22 26  1  0  0  0  0
 25 27  1  0  0  0  0
 27 28  1  0  0  0  0
 27 29  2  0  0  0  0
 30 27  2  0  0  0  0
 22 31  1  0  0  0  0
M  END
> <ID>
CHEBI:59246

> <NAME>
sulcofuron

> <DEFINITION>
An organochlorine pesticide consisting of 1,3-diphenylurea having chloro substituents at the 3-, 4- and 5'-positions and a 4-chloro-2-sulfophenoxy group at the 2'-position.

> <STAR>
3

> <IUPAC_NAME>
5-chloro-2-(4-chloro-2-{[(3,4-dichlorophenyl)carbamoyl]amino}phenoxy)benzene-1-sulfonic acid

> <FORMULA>
C19H12Cl4N2O5S

> <MASS>
522.18600

> <MONOISOTOPIC_MASS>
519.92210

> <CHARGE>
0

> <SMILES>
OS(=O)(=O)c1cc(Cl)ccc1Oc1ccc(Cl)cc1NC(=O)Nc1ccc(Cl)c(Cl)c1

> <INCHI>
InChI=1S/C19H12Cl4N2O5S/c20-10-1-5-16(30-17-6-2-11(21)8-18(17)31(27,28)29)15(7-10)25-19(26)24-12-3-4-13(22)14(23)9-12/h1-9H,(H2,24,25,26)(H,27,28,29)

> <INCHIKEY>
MKUMTCOTMQPYTQ-UHFFFAOYSA-N

> <BEILSTEIN_REGISTRY_NUMBER>
3517243

> <CAS_REGISTRY_NUMBER>
24019-05-4

> <REAXYS_REGISTRY_NUMBER>
3517243

> <CHEMIDPLUS>
24019-05-4

> <PESTICIDES_ACCESSION>
sulcofuron

> <PUBMED_CITATION>
8841454

$$$$

Marvin  04211013282D          

 45 48  0  0  1  0            999 V2000
   14.5293   -5.1951    0.0000 C   0  0  0  0  0  0  0  0  0  0  0  0
   14.5294   -6.0184    0.0000 O   0  0  0  0  0  0  0  0  0  0  0  0
   13.8154   -4.7851    0.0000 C   0  0  1  0  0  0  0  0  0  0  0  0
   13.1014   -5.1986    0.0000 O   0  0  0  0  0  0  0  0  0  0  0  0
   13.7965   -3.9294    0.0000 C   0  0  1  0  0  0  0  0  0  0  0  0
   13.0825   -3.5196    0.0000 O   0  0  0  0  0  0  0  0  0  0  0  0
   14.5104   -3.5161    0.0000 C   0  0  2  0  0  0  0  0  0  0  0  0
   14.4835   -2.6739    0.0000 O   0  0  0  0  0  0  0  0  0  0  0  0
   15.2756   -3.9395    0.0000 C   0  0  2  0  0  0  0  0  0  0  0  0
   15.2433   -4.7817    0.0000 O   0  0  0  0  0  0  0  0  0  0  0  0
   15.9896   -3.5262    0.0000 C   0  0  0  0  0  0  0  0  0  0  0  0
   15.9708   -2.6704    0.0000 O   0  0  0  0  0  0  0  0  0  0  0  0
   12.3685   -4.7563    0.0000 C   0  0  2  0  0  0  0  0  0  0  0  0
   11.6546   -5.1698    0.0000 C   0  0  1  0  0  0  0  0  0  0  0  0
   11.6409   -6.0442    0.0000 O   0  0  0  0  0  0  0  0  0  0  0  0
   10.9405   -4.7598    0.0000 C   0  0  1  0  0  0  0  0  0  0  0  0
   10.1942   -5.1920    0.0000 O   0  0  0  0  0  0  0  0  0  0  0  0
   10.9405   -3.9366    0.0000 C   0  0  2  0  0  0  0  0  0  0  0  0
   10.2265   -3.5265    0.0000 O   0  0  0  0  0  0  0  0  0  0  0  0
   11.6544   -3.5231    0.0000 C   0  0  2  0  0  0  0  0  0  0  0  0
   12.3684   -3.9330    0.0000 O   0  0  0  0  0  0  0  0  0  0  0  0
   11.6543   -2.6998    0.0000 C   0  0  0  0  0  0  0  0  0  0  0  0
   10.9403   -2.2900    0.0000 O   0  0  0  0  0  0  0  0  0  0  0  0
   10.9271   -6.4577    0.0000 C   0  0  2  0  0  0  0  0  0  0  0  0
   10.9271   -7.2810    0.0000 C   0  0  1  0  0  0  0  0  0  0  0  0
   11.6411   -7.6909    0.0000 O   0  0  0  0  0  0  0  0  0  0  0  0
   10.1618   -7.6808    0.0000 C   0  0  1  0  0  0  0  0  0  0  0  0
   10.1807   -8.5365    0.0000 O   0  0  0  0  0  0  0  0  0  0  0  0
    9.4803   -7.2521    0.0000 C   0  0  2  0  0  0  0  0  0  0  0  0
    8.7663   -7.6654    0.0000 O   0  0  0  0  0  0  0  0  0  0  0  0
    9.4802   -6.4288    0.0000 C   0  0  2  0  0  0  0  0  0  0  0  0
   10.1942   -6.0153    0.0000 O   0  0  0  0  0  0  0  0  0  0  0  0
    8.7663   -6.0189    0.0000 C   0  0  0  0  0  0  0  0  0  0  0  0
    8.0523   -6.4323    0.0000 O   0  0  0  0  0  0  0  0  0  0  0  0
   11.6411   -8.5142    0.0000 C   0  0  2  0  0  0  0  0  0  0  0  0
   12.3865   -8.9349    0.0000 C   0  0  1  0  0  0  0  0  0  0  0  0
   13.1035   -8.5303    0.0000 O   0  0  0  0  0  0  0  0  0  0  0  0
   12.3775   -9.7599    0.0000 C   0  0  1  0  0  0  0  0  0  0  0  0
   13.0849  -10.2178    0.0000 O   0  0  0  0  0  0  0  0  0  0  0  0
   11.6230  -10.1642    0.0000 C   0  0  2  0  0  0  0  0  0  0  0  0
   11.6138  -10.9892    0.0000 O   0  0  0  0  0  0  0  0  0  0  0  0
   10.9151   -9.7440    0.0000 C   0  0  2  0  0  0  0  0  0  0  0  0
   10.9241   -8.9189    0.0000 O   0  0  0  0  0  0  0  0  0  0  0  0
   10.1980  -10.1485    0.0000 C   0  0  0  0  0  0  0  0  0  0  0  0
   10.1889  -10.9735    0.0000 O   0  0  0  0  0  0  0  0  0  0  0  0
  1  2  1  0  0  0  0
  3  1  1  0  0  0  0
 10  1  1  0  0  0  0
  3  4  1  1  0  0  0
  5  3  1  0  0  0  0
 13  4  1  6  0  0  0
  5  6  1  1  0  0  0
  7  5  1  0  0  0  0
  7  8  1  6  0  0  0
  9  7  1  0  0  0  0
 10  9  1  0  0  0  0
  9 11  1  1  0  0  0
 12 11  1  0  0  0  0
 14 13  1  0  0  0  0
 21 13  1  0  0  0  0
 14 15  1  1  0  0  0
 16 14  1  0  0  0  0
 24 15  1  6  0  0  0
 16 17  1  1  0  0  0
 18 16  1  0  0  0  0
 18 19  1  6  0  0  0
 20 18  1  0  0  0  0
 21 20  1  0  0  0  0
 20 22  1  1  0  0  0
 23 22  1  0  0  0  0
 25 24  1  0  0  0  0
 32 24  1  0  0  0  0
 25 26  1  1  0  0  0
 27 25  1  0  0  0  0
 27 28  1  1  0  0  0
 29 27  1  0  0  0  0
 29 30  1  6  0  0  0
 31 29  1  0  0  0  0
 32 31  1  0  0  0  0
 31 33  1  1  0  0  0
 34 33  1  0  0  0  0
 36 35  1  0  0  0  0
 43 35  1  0  0  0  0
 36 37  1  1  0  0  0
 38 36  1  0  0  0  0
 38 39  1  1  0  0  0
 40 38  1  0  0  0  0
 40 41  1  6  0  0  0
 42 40  1  0  0  0  0
 43 42  1  0  0  0  0
 42 44  1  1  0  0  0
 45 44  1  0  0  0  0
 35 26  1  6  0  0  0
M  END
> <ID>
CHEBI:59249

> <NAME>
alpha-D-Manp-(1->2)-alpha-D-Manp-(1->2)-alpha-D-Manp-(1->2)-D-Manp

> <DEFINITION>
A tetrasaccharide comprising four mannosyl residues joined by α(1→2) linkages.

> <STAR>
3

> <SYNONYM>
Manalpha1-2Manalpha1-2Manalpha1-2Man; alpha-linked tetramannoside; alpha-D-mannosyl-(1->2)-alpha-D-mannosyl-(1->2)-alpha-D-mannosyl-(1->2)-D-mannose; alpha-D-Man-(1->2)-alpha-D-Man-(1->2)-alpha-D-Man-(1->2)-D-Man; (Man)4

> <IUPAC_NAME>
alpha-D-mannopyranosyl-(1->2)-alpha-D-mannopyranosyl-(1->2)-alpha-D-mannopyranosyl-(1->2)-D-mannopyranose

> <FORMULA>
C24H42O21

> <MASS>
666.57770

> <MONOISOTOPIC_MASS>
666.22186

> <CHARGE>
0

> <SMILES>
OC[C@H]1OC(O)[C@@H](O[C@H]2O[C@H](CO)[C@@H](O)[C@H](O)[C@@H]2O[C@H]2O[C@H](CO)[C@@H](O)[C@H](O)[C@@H]2O[C@H]2O[C@H](CO)[C@@H](O)[C@H](O)[C@@H]2O)[C@@H](O)[C@@H]1O

> <INCHI>
InChI=1S/C24H42O21/c25-1-5-10(30)14(34)18(21(38)39-5)43-23-20(16(36)12(32)7(3-27)41-23)45-24-19(15(35)11(31)8(4-28)42-24)44-22-17(37)13(33)9(29)6(2-26)40-22/h5-38H,1-4H2/t5-,6-,7-,8-,9-,10-,11-,12-,13+,14+,15+,16+,17+,18+,19+,20+,21?,22-,23-,24-/m1/s1

> <INCHIKEY>
RVKKLZMEZUGKOE-SHOVVSDRSA-N

> <BEILSTEIN_REGISTRY_NUMBER>
4222742

> <REAXYS_REGISTRY_NUMBER>
4222742

> <KEGG_GLYCAN_ACCESSION>
G00448

> <PUBMED_CITATION>
12435690; 1368530; 1954627; 2164449; 8898075

$$$$

Marvin  04211013492D          

 45 48  0  0  1  0            999 V2000
   14.5293   -5.1951    0.0000 C   0  0  0  0  0  0  0  0  0  0  0  0
   14.5294   -6.0184    0.0000 O   0  0  0  0  0  0  0  0  0  0  0  0
   13.8154   -4.7851    0.0000 C   0  0  1  0  0  0  0  0  0  0  0  0
   13.1014   -5.1986    0.0000 O   0  0  0  0  0  0  0  0  0  0  0  0
   13.7965   -3.9294    0.0000 C   0  0  1  0  0  0  0  0  0  0  0  0
   13.0825   -3.5196    0.0000 O   0  0  0  0  0  0  0  0  0  0  0  0
   14.5104   -3.5161    0.0000 C   0  0  2  0  0  0  0  0  0  0  0  0
   14.5428   -2.6739    0.0000 O   0  0  0  0  0  0  0  0  0  0  0  0
   15.2756   -3.9395    0.0000 C   0  0  2  0  0  0  0  0  0  0  0  0
   15.2433   -4.7817    0.0000 O   0  0  0  0  0  0  0  0  0  0  0  0
   15.9896   -3.5262    0.0000 C   0  0  0  0  0  0  0  0  0  0  0  0
   15.9708   -2.6704    0.0000 O   0  0  0  0  0  0  0  0  0  0  0  0
   12.3685   -4.7563    0.0000 C   0  0  1  0  0  0  0  0  0  0  0  0
   11.6546   -5.1698    0.0000 C   0  0  1  0  0  0  0  0  0  0  0  0
   11.6409   -6.0442    0.0000 O   0  0  0  0  0  0  0  0  0  0  0  0
   10.9405   -4.7598    0.0000 C   0  0  1  0  0  0  0  0  0  0  0  0
   10.1942   -5.1920    0.0000 O   0  0  0  0  0  0  0  0  0  0  0  0
   10.9405   -3.9366    0.0000 C   0  0  2  0  0  0  0  0  0  0  0  0
   10.2265   -3.5265    0.0000 O   0  0  0  0  0  0  0  0  0  0  0  0
   11.6544   -3.5231    0.0000 C   0  0  2  0  0  0  0  0  0  0  0  0
   12.3684   -3.9330    0.0000 O   0  0  0  0  0  0  0  0  0  0  0  0
   11.6543   -2.6998    0.0000 C   0  0  0  0  0  0  0  0  0  0  0  0
   10.9403   -2.2900    0.0000 O   0  0  0  0  0  0  0  0  0  0  0  0
   10.9271   -6.4577    0.0000 C   0  0  1  0  0  0  0  0  0  0  0  0
   10.9271   -7.2810    0.0000 C   0  0  1  0  0  0  0  0  0  0  0  0
   11.6411   -7.6909    0.0000 O   0  0  0  0  0  0  0  0  0  0  0  0
   10.1618   -7.6808    0.0000 C   0  0  1  0  0  0  0  0  0  0  0  0
   10.1807   -8.5365    0.0000 O   0  0  0  0  0  0  0  0  0  0  0  0
    9.4803   -7.2521    0.0000 C   0  0  2  0  0  0  0  0  0  0  0  0
    8.7663   -7.6654    0.0000 O   0  0  0  0  0  0  0  0  0  0  0  0
    9.4802   -6.4288    0.0000 C   0  0  2  0  0  0  0  0  0  0  0  0
   10.1942   -6.0153    0.0000 O   0  0  0  0  0  0  0  0  0  0  0  0
    8.7663   -6.0189    0.0000 C   0  0  0  0  0  0  0  0  0  0  0  0
    8.0523   -6.4323    0.0000 O   0  0  0  0  0  0  0  0  0  0  0  0
   11.6411   -8.5142    0.0000 C   0  0  1  0  0  0  0  0  0  0  0  0
   12.3865   -8.9349    0.0000 C   0  0  1  0  0  0  0  0  0  0  0  0
   13.1035   -8.5303    0.0000 O   0  0  0  0  0  0  0  0  0  0  0  0
   12.3775   -9.7599    0.0000 C   0  0  1  0  0  0  0  0  0  0  0  0
   13.0849  -10.2178    0.0000 O   0  0  0  0  0  0  0  0  0  0  0  0
   11.6230  -10.1642    0.0000 C   0  0  2  0  0  0  0  0  0  0  0  0
   11.6138  -10.9892    0.0000 O   0  0  0  0  0  0  0  0  0  0  0  0
   10.9151   -9.7440    0.0000 C   0  0  2  0  0  0  0  0  0  0  0  0
   10.9241   -8.9189    0.0000 O   0  0  0  0  0  0  0  0  0  0  0  0
   10.1980  -10.1485    0.0000 C   0  0  0  0  0  0  0  0  0  0  0  0
   10.1889  -10.9735    0.0000 O   0  0  0  0  0  0  0  0  0  0  0  0
  1  2  1  0  0  0  0
  3  1  1  0  0  0  0
 10  1  1  0  0  0  0
  3  4  1  1  0  0  0
  5  3  1  0  0  0  0
 13  4  1  1  0  0  0
  5  6  1  1  0  0  0
  7  5  1  0  0  0  0
  7  8  1  6  0  0  0
  9  7  1  0  0  0  0
 10  9  1  0  0  0  0
  9 11  1  1  0  0  0
 12 11  1  0  0  0  0
 14 13  1  0  0  0  0
 21 13  1  0  0  0  0
 14 15  1  1  0  0  0
 16 14  1  0  0  0  0
 24 15  1  1  0  0  0
 16 17  1  1  0  0  0
 18 16  1  0  0  0  0
 18 19  1  6  0  0  0
 20 18  1  0  0  0  0
 21 20  1  0  0  0  0
 20 22  1  1  0  0  0
 23 22  1  0  0  0  0
 25 24  1  0  0  0  0
 32 24  1  0  0  0  0
 25 26  1  1  0  0  0
 27 25  1  0  0  0  0
 27 28  1  1  0  0  0
 29 27  1  0  0  0  0
 29 30  1  6  0  0  0
 31 29  1  0  0  0  0
 32 31  1  0  0  0  0
 31 33  1  1  0  0  0
 34 33  1  0  0  0  0
 36 35  1  0  0  0  0
 43 35  1  0  0  0  0
 36 37  1  1  0  0  0
 38 36  1  0  0  0  0
 38 39  1  1  0  0  0
 40 38  1  0  0  0  0
 40 41  1  6  0  0  0
 42 40  1  0  0  0  0
 43 42  1  0  0  0  0
 42 44  1  1  0  0  0
 45 44  1  0  0  0  0
 35 26  1  1  0  0  0
M  END
> <ID>
CHEBI:59250

> <NAME>
beta-D-Manp-(1->2)-beta-D-Manp-(1->2)-beta-D-Manp-(1->2)-D-Manp

> <DEFINITION>
A tetrasaccharide comprising four D-mannose residues joined by β(1→2) linkages.

> <STAR>
3

> <SYNONYM>
Manbeta1-2Manbeta1-2Manbeta1-2Man; beta-linked tetramannoside; beta-D-mannosyl-(1->2)-beta-D-mannosyl-(1->2)-beta-D-mannosyl-(1->2)-D-mannose; beta-D-Man-(1->2)-beta-D-Man-(1->2)-beta-D-Man-(1->2)-D-Man

> <IUPAC_NAME>
beta-D-mannopyranosyl-(1->2)-beta-D-mannopyranosyl-(1->2)-beta-D-mannopyranosyl-(1->2)-D-mannopyranose

> <FORMULA>
C24H42O21

> <MASS>
666.57770

> <MONOISOTOPIC_MASS>
666.22186

> <CHARGE>
0

> <SMILES>
OC[C@H]1OC(O)[C@@H](O[C@@H]2O[C@H](CO)[C@@H](O)[C@H](O)[C@@H]2O[C@@H]2O[C@H](CO)[C@@H](O)[C@H](O)[C@@H]2O[C@@H]2O[C@H](CO)[C@@H](O)[C@H](O)[C@@H]2O)[C@@H](O)[C@@H]1O

> <INCHI>
InChI=1S/C24H42O21/c25-1-5-10(30)14(34)18(21(38)39-5)43-23-20(16(36)12(32)7(3-27)41-23)45-24-19(15(35)11(31)8(4-28)42-24)44-22-17(37)13(33)9(29)6(2-26)40-22/h5-38H,1-4H2/t5-,6-,7-,8-,9-,10-,11-,12-,13+,14+,15+,16+,17+,18+,19+,20+,21?,22+,23+,24+/m1/s1

> <INCHIKEY>
RVKKLZMEZUGKOE-JCFPIJKISA-N

> <PUBMED_CITATION>
12435690

$$$$

Marvin  06071011382D          

 44 46  0  0  1  0            999 V2000
   15.6702   -2.8257    0.0000 C   0  0  2  0  0  0  0  0  0  0  0  0
   16.3736   -2.3946    0.0000 O   0  0  0  0  0  0  0  0  0  0  0  0
   15.6702   -3.6507    0.0000 C   0  0  1  0  0  0  0  0  0  0  0  0
   16.4113   -4.0657    0.0000 O   0  0  0  0  0  0  0  0  0  0  0  0
   14.9668   -4.0818    0.0000 C   0  0  2  0  0  0  0  0  0  0  0  0
   14.2258   -2.8418    0.0000 C   0  0  2  0  0  0  0  0  0  0  0  0
   14.9417   -2.4178    0.0000 O   0  0  0  0  0  0  0  0  0  0  0  0
   13.4972   -2.4338    0.0000 C   0  0  1  0  0  0  0  0  0  0  0  0
   13.4972   -1.6088    0.0000 O   0  0  0  0  0  0  0  0  0  0  0  0
   12.7938   -2.8649    0.0000 C   0  0  0  0  0  0  0  0  0  0  0  0
   14.2136   -1.9879    0.0000 H   0  0  0  0  0  0  0  0  0  0  0  0
   12.0741   -2.4618    0.0000 O   0  0  0  0  0  0  0  0  0  0  0  0
   14.9433   -5.7315    0.0000 C   0  0  2  0  0  0  0  0  0  0  0  0
   15.6120   -6.1667    0.0000 C   0  0  1  0  0  0  0  0  0  0  0  0
   14.1832   -6.1668    0.0000 O   0  0  0  0  0  0  0  0  0  0  0  0
   15.6120   -6.9918    0.0000 C   0  0  2  0  0  0  0  0  0  0  0  0
   14.1832   -6.9919    0.0000 C   0  0  1  0  0  0  0  0  0  0  0  0
   14.8976   -7.4043    0.0000 C   0  0  1  0  0  0  0  0  0  0  0  0
   16.3265   -5.7543    0.0000 O   0  0  0  0  0  0  0  0  0  0  0  0
   16.3265   -7.4043    0.0000 O   0  0  0  0  0  0  0  0  0  0  0  0
   14.8976   -8.2292    0.0000 O   0  0  0  0  0  0  0  0  0  0  0  0
   13.4687   -7.4043    0.0000 C   0  0  0  0  0  0  0  0  0  0  0  0
   13.4687   -8.2293    0.0000 O   0  0  0  0  0  0  0  0  0  0  0  0
   11.3707   -2.8929    0.0000 C   0  0  2  0  0  0  0  0  0  0  0  0
   11.3707   -3.7179    0.0000 C   0  0  1  0  0  0  0  0  0  0  0  0
   12.1117   -4.1328    0.0000 O   0  0  0  0  0  0  0  0  0  0  0  0
   10.6673   -4.1490    0.0000 C   0  0  1  0  0  0  0  0  0  0  0  0
   10.6673   -4.9740    0.0000 O   0  0  0  0  0  0  0  0  0  0  0  0
    9.9388   -3.7409    0.0000 C   0  0  2  0  0  0  0  0  0  0  0  0
    9.2228   -4.1650    0.0000 O   0  0  0  0  0  0  0  0  0  0  0  0
    9.9262   -2.9090    0.0000 C   0  0  2  0  0  0  0  0  0  0  0  0
   10.6421   -2.4849    0.0000 O   0  0  0  0  0  0  0  0  0  0  0  0
    9.1977   -2.5010    0.0000 C   0  0  1  0  0  0  0  0  0  0  0  0
    9.1977   -1.6760    0.0000 O   0  0  0  0  0  0  0  0  0  0  0  0
    8.4943   -2.9320    0.0000 C   0  0  0  0  0  0  0  0  0  0  0  0
    9.9140   -2.0054    0.0000 H   0  0  0  0  0  0  0  0  0  0  0  0
    7.7745   -2.5290    0.0000 O   0  0  0  0  0  0  0  0  0  0  0  0
   14.2470   -3.6787    0.0000 C   0  0  1  0  0  0  0  0  0  0  0  0
   13.5325   -4.0912    0.0000 O   0  0  0  0  0  0  0  0  0  0  0  0
   14.9668   -4.9068    0.0000 O   0  0  0  0  0  0  0  0  0  0  0  0
   13.5325   -4.9162    0.0000 P   0  0  0  0  0  0  0  0  0  0  0  0
   12.8180   -5.3287    0.0000 O   0  0  0  0  0  0  0  0  0  0  0  0
   14.2470   -5.3287    0.0000 O   0  0  0  0  0  0  0  0  0  0  0  0
   13.5325   -5.7412    0.0000 O   0  0  0  0  0  0  0  0  0  0  0  0
  1  2  1  6  0  0  0
  3  1  1  0  0  0  0
  7  1  1  0  0  0  0
  3  4  1  1  0  0  0
  5  3  1  0  0  0  0
  5 40  1  1  0  0  0
  6  7  1  0  0  0  0
  8  6  1  0  0  0  0
  8  9  1  6  0  0  0
 10  8  1  0  0  0  0
  6 11  1  6  0  0  0
 10 12  1  0  0  0  0
 13 14  1  0  0  0  0
 13 15  1  0  0  0  0
 14 16  1  0  0  0  0
 15 17  1  0  0  0  0
 16 18  1  0  0  0  0
 17 18  1  0  0  0  0
 14 19  1  6  0  0  0
 16 20  1  1  0  0  0
 18 21  1  6  0  0  0
 17 22  1  1  0  0  0
 23 22  1  0  0  0  0
 24 12  1  6  0  0  0
 25 24  1  0  0  0  0
 32 24  1  0  0  0  0
 25 26  1  1  0  0  0
 27 25  1  0  0  0  0
 27 28  1  1  0  0  0
 29 27  1  0  0  0  0
 29 30  1  6  0  0  0
 31 29  1  0  0  0  0
 31 32  1  0  0  0  0
 33 31  1  0  0  0  0
 33 34  1  6  0  0  0
 35 33  1  0  0  0  0
 31 36  1  6  0  0  0
 35 37  1  0  0  0  0
  5 38  1  0  0  0  0
 38  6  1  0  0  0  0
 38 39  1  6  0  0  0
 13 40  1  6  0  0  0
 39 41  1  0  0  0  0
 41 42  2  0  0  0  0
 41 43  1  0  0  0  0
 41 44  1  0  0  0  0
M  END
> <ID>
CHEBI:59257

> <NAME>
alpha-D-Glcp-(1->3)-[L-alpha-D-Hepp-(1->7)]-L-alpha-D-Hepp-4P

> <DEFINITION>
A trisaccharide derivative and oligosaccharide phosphate comprised of one α-D-glucopyranosyl and two L-glycero-α-D-manno-heptopyranosyl residues.  The sequence is present in enterobacterial lipopolysaccharide from all E. coli, Salmonella and Shigella.

> <STAR>
3

> <SYNONYM>
alpha-D-glucosyl-(1->3)-[L-glycero-alpha-D-manno-heptosyl-(1->7)]-4-O-phosphono-L-glycero-alpha-D-manno-heptose

> <IUPAC_NAME>
alpha-D-glucopyranosyl-(1->3)-[L-glycero-alpha-D-manno-heptopyranosyl-(1->7)]-4-O-phosphono-L-glycero-alpha-D-manno-heptopyranose

> <FORMULA>
C20H37O21P

> <MASS>
644.46890

> <MONOISOTOPIC_MASS>
644.15650

> <CHARGE>
0

> <SMILES>
[H][C@@]1(O[C@H](OC[C@H](O)[C@@]2([H])O[C@H](O)[C@@H](O)[C@@H](O[C@H]3O[C@H](CO)[C@@H](O)[C@H](O)[C@H]3O)[C@@H]2OP(O)(O)=O)[C@@H](O)[C@@H](O)[C@@H]1O)[C@@H](O)CO

> <INCHI>
InChI=1S/C20H37O21P/c21-1-4(23)14-10(28)9(27)11(29)19(39-14)36-3-5(24)15-17(41-42(33,34)35)16(13(31)18(32)38-15)40-20-12(30)8(26)7(25)6(2-22)37-20/h4-32H,1-3H2,(H2,33,34,35)/t4-,5-,6+,7+,8-,9-,10-,11-,12+,13-,14+,15+,16+,17+,18-,19-,20+/m0/s1

> <INCHIKEY>
ZELTWDGCNLKHSH-SZCITUTKSA-N

> <PUBMED_CITATION>
12716894

$$$$

Marvin  04211017162D          

 34 35  0  0  1  0            999 V2000
   22.5489  -34.5516    0.0000 C   0  0  2  0  0  0  0  0  0  0  0  0
   23.2729  -34.1562    0.0000 O   0  0  0  0  0  0  0  0  0  0  0  0
   22.5489  -35.4231    0.0000 C   0  0  1  0  0  0  0  0  0  0  0  0
   23.2528  -35.8254    0.0000 O   0  0  0  0  0  0  0  0  0  0  0  0
   21.8249  -35.8186    0.0000 C   0  0  2  0  0  0  0  0  0  0  0  0
   21.8517  -36.6431    0.0000 O   0  0  0  0  0  0  0  0  0  0  0  0
   21.1210  -35.4163    0.0000 C   0  0  1  0  0  0  0  0  0  0  0  0
   20.3970  -35.8118    0.0000 O   0  0  0  0  0  0  0  0  0  0  0  0
   21.0942  -34.5918    0.0000 C   0  0  0  0  0  0  0  0  0  0  0  0
   21.8451  -34.1494    0.0000 O   0  0  0  0  0  0  0  0  0  0  0  0
   21.1746  -37.0654    0.0000 C   0  0  2  0  0  0  0  0  0  0  0  0
   21.1745  -37.9369    0.0000 C   0  0  2  0  0  0  0  0  0  0  0  0
   21.9052  -38.2922    0.0000 O   0  0  0  0  0  0  0  0  0  0  0  0
   20.4505  -38.3324    0.0000 C   0  0  0  0  0  0  0  0  0  0  0  0
   19.7198  -37.9771    0.0000 C   0  0  1  0  0  0  0  0  0  0  0  0
   19.0428  -38.3994    0.0000 O   0  0  0  0  0  0  0  0  0  0  0  0
   19.7199  -37.1056    0.0000 C   0  0  2  0  0  0  0  0  0  0  0  0
   20.3970  -36.6833    0.0000 O   0  0  0  0  0  0  0  0  0  0  0  0
   19.0160  -36.7034    0.0000 C   0  0  0  0  0  0  0  0  0  0  0  0
   19.7466  -38.8016    0.0000 C   0  0  0  0  0  0  0  0  0  0  0  0
   19.0226  -39.1971    0.0000 C   0  0  0  0  0  0  0  0  0  0  0  0
   19.0494  -40.0217    0.0000 C   0  0  0  0  0  0  0  0  0  0  0  0
   18.3454  -40.4909    0.0000 C   0  0  0  0  0  0  0  0  0  0  0  0
   18.3722  -41.3155    0.0000 C   0  0  0  0  0  0  0  0  0  0  0  0
   17.6482  -41.7109    0.0000 C   0  0  0  0  0  0  0  0  0  0  0  0
   17.6482  -42.5824    0.0000 C   0  0  0  0  0  0  0  0  0  0  0  0
   20.4773  -39.1570    0.0000 O   0  0  0  0  0  0  0  0  0  0  0  0
   21.2013  -38.7615    0.0000 C   0  0  0  0  0  0  0  0  0  0  0  0
   19.8002  -40.4507    0.0000 O   0  0  0  0  0  0  0  0  0  0  0  0
   20.4773  -40.0284    0.0000 C   0  0  0  0  0  0  0  0  0  0  0  0
   17.6416  -40.0887    0.0000 O   0  0  0  0  0  0  0  0  0  0  0  0
   19.0761  -41.7177    0.0000 O   0  0  0  0  0  0  0  0  0  0  0  0
   16.9176  -41.3556    0.0000 O   0  0  0  0  0  0  0  0  0  0  0  0
   16.9711  -43.0047    0.0000 O   0  0  0  0  0  0  0  0  0  0  0  0
  1  2  1  6  0  0  0
  3  1  1  0  0  0  0
 10  1  1  0  0  0  0
  3  4  1  1  0  0  0
  5  3  1  0  0  0  0
  5  6  1  6  0  0  0
  7  5  1  0  0  0  0
 11  6  1  6  0  0  0
  7  8  1  1  0  0  0
  9  7  1  0  0  0  0
 10  9  1  0  0  0  0
 12 11  1  0  0  0  0
 18 11  1  0  0  0  0
 12 13  1  6  0  0  0
 14 12  1  0  0  0  0
 15 14  1  0  0  0  0
 15 16  1  1  0  0  0
 17 15  1  0  0  0  0
 20 15  1  0  0  0  0
 18 17  1  0  0  0  0
 17 19  1  1  0  0  0
 21 20  1  0  0  0  0
 27 20  1  0  0  0  0
 22 21  1  0  0  0  0
 23 22  1  0  0  0  0
 29 22  1  0  0  0  0
 24 23  1  0  0  0  0
 31 23  1  0  0  0  0
 25 24  1  0  0  0  0
 32 24  1  0  0  0  0
 26 25  1  0  0  0  0
 33 25  1  0  0  0  0
 34 26  1  0  0  0  0
 28 27  1  0  0  0  0
 30 29  1  0  0  0  0
M  END
> <ID>
CHEBI:59259

> <NAME>
3,6-dideoxy-4-C-(1,3-dimethoxy-4,5,6,7-tetrahydroxyheptyl)-alpha-D-xylo-hexp-(1->3)-beta-L-Xylp

> <DEFINITION>
A glycosylxylose derivative that comprises the highly antigenic lipooligosaccharide, LOS-III, epitope of Mycobacterium gastri.

> <STAR>
3

> <IUPAC_NAME>
3,6-dideoxy-4-C-(1,3-dimethoxy-4,5,6,7-tetrahydroxyheptyl)-alpha-D-xylo-hexopyranosyl-(1->3)-beta-L-xylopyranose

> <FORMULA>
C20H38O14

> <MASS>
502.50730

> <MONOISOTOPIC_MASS>
502.22616

> <CHARGE>
0

> <SMILES>
COC(CC(OC)[C@@]1(O)C[C@@H](O)[C@H](O[C@@H]1C)O[C@@H]1[C@@H](O)CO[C@H](O)[C@H]1O)C(O)C(O)C(O)CO

> <INCHI>
InChI=1S/C20H38O14/c1-8-20(29,13(31-3)4-12(30-2)15(26)14(25)10(23)6-21)5-9(22)19(33-8)34-17-11(24)7-32-18(28)16(17)27/h8-19,21-29H,4-7H2,1-3H3/t8-,9-,10?,11+,12?,13?,14?,15?,16+,17-,18+,19-,20-/m1/s1

> <INCHIKEY>
RLLUIOQFQQEFOI-MUZJKTBQSA-N

> <PUBMED_CITATION>
7496145

$$$$

Marvin  04221017472D          

 29 30  0  0  1  0            999 V2000
    5.3067  -13.7240    0.0000 C   0  0  2  0  0  0  0  0  0  0  0  0
    5.3067  -14.5490    0.0000 C   0  0  2  0  0  0  0  0  0  0  0  0
    4.5907  -14.9586    0.0000 C   0  0  1  0  0  0  0  0  0  0  0  0
    3.8869  -14.5505    0.0000 C   0  0  1  0  0  0  0  0  0  0  0  0
    3.8869  -13.7255    0.0000 C   0  0  2  0  0  0  0  0  0  0  0  0
    3.1708  -13.3101    0.0000 C   0  0  0  0  0  0  0  0  0  0  0  0
    6.7374  -11.2518    0.0000 C   0  0  0  0  0  0  0  0  0  0  0  0
    6.7374  -12.0768    0.0000 C   0  0  1  0  0  0  0  0  0  0  0  0
    6.0229  -10.8393    0.0000 O   0  0  0  0  0  0  0  0  0  0  0  0
    6.0229  -12.4893    0.0000 C   0  0  2  0  0  0  0  0  0  0  0  0
    5.3084  -11.2518    0.0000 C   0  0  1  0  0  0  0  0  0  0  0  0
    5.3084  -12.0768    0.0000 C   0  0  1  0  0  0  0  0  0  0  0  0
    7.4519  -10.8393    0.0000 O   0  0  0  0  0  0  0  0  0  0  0  0
    7.4519  -12.4893    0.0000 N   0  0  0  0  0  0  0  0  0  0  0  0
    6.0229  -13.3143    0.0000 O   0  0  0  0  0  0  0  0  0  0  0  0
    4.5939  -12.4893    0.0000 O   0  0  0  0  0  0  0  0  0  0  0  0
    4.5939  -10.8393    0.0000 C   0  0  0  0  0  0  0  0  0  0  0  0
    8.1663  -12.0768    0.0000 C   0  0  0  0  0  0  0  0  0  0  0  0
    8.1664  -11.2518    0.0000 O   0  0  0  0  0  0  0  0  0  0  0  0
    8.8808  -12.4893    0.0000 C   0  0  0  0  0  0  0  0  0  0  0  0
    6.0352  -14.9715    0.0000 N   0  0  0  0  0  0  0  0  0  0  0  0
    4.5907  -15.7836    0.0000 O   0  0  0  0  0  0  0  0  0  0  0  0
    3.1708  -14.9601    0.0000 O   0  0  0  0  0  0  0  0  0  0  0  0
    4.6030  -13.3158    0.0000 O   0  0  0  0  0  0  0  0  0  0  0  0
    3.1831  -12.4922    0.0000 O   0  0  0  0  0  0  0  0  0  0  0  0
    2.4670  -13.7269    0.0000 O   0  0  0  0  0  0  0  0  0  0  0  0
    6.7505  -14.5604    0.0000 C   0  0  0  0  0  0  0  0  0  0  0  0
    6.7522  -13.7354    0.0000 O   0  0  0  0  0  0  0  0  0  0  0  0
    7.4641  -14.9743    0.0000 C   0  0  0  0  0  0  0  0  0  0  0  0
  7  8  1  0  0  0  0
  7  9  1  0  0  0  0
  8 10  1  0  0  0  0
  9 11  1  0  0  0  0
 10 12  1  0  0  0  0
 11 12  1  0  0  0  0
  7 13  1  0  0  0  0
  8 14  1  6  0  0  0
 10 15  1  1  0  0  0
 12 16  1  6  0  0  0
 11 17  1  1  0  0  0
 19 18  2  0  0  0  0
 20 18  1  0  0  0  0
 14 18  1  0  0  0  0
  1 15  1  1  0  0  0
  2  1  1  0  0  0  0
 24  1  1  0  0  0  0
  2 21  1  1  0  0  0
  3  2  1  0  0  0  0
  3 22  1  6  0  0  0
  4  3  1  0  0  0  0
  4 23  1  6  0  0  0
  5  4  1  0  0  0  0
 24  5  1  0  0  0  0
  5  6  1  6  0  0  0
 25  6  1  0  0  0  0
 26  6  2  0  0  0  0
 28 27  2  0  0  0  0
 29 27  1  0  0  0  0
 21 27  1  0  0  0  0
M  END
> <ID>
CHEBI:59278

> <NAME>
2-acetamido-2-deoxy-alpha-L-galactopyranuronosyl-(1->3)-N-acetyl-D-quinovosamine

> <DEFINITION>
A disaccharide formed by an α1→3 glycosidic linkage between N-acetyl-L-galactosaminuronic acid and N-acetylquinovosamine.

> <STAR>
3

> <SYNONYM>
L-GalNAcA(alpha1-3)D-QuiNAc; alpha-L-GalNAcA-(1->3)-D-QuiNAc; 2-acetamido-3-O-(2-acetamido-2-deoxy-alpha-L-galactopyranuronosyl)-2,6-dideoxy-D-glucopyranose; 2-acetamido-3-O-(2-acetamido-2-deoxy-alpha-L-galactopyranosyluronic acid)-2,6-dideoxy-D-glucopyranose; 2-acetamido-2-deoxy-alpha-L-galactopyranuronosyl-(1->3)-2-acetamido-2,6-dideoxy-D-glucopyranose

> <IUPAC_NAME>
(2-acetamido-2-deoxy-alpha-L-galactopyranosyluronic acid)-(1->3)-2-acetamido-2,6-dideoxy-D-glucopyranose

> <FORMULA>
C16H26N2O11

> <MASS>
422.38440

> <MONOISOTOPIC_MASS>
422.15366

> <CHARGE>
0

> <SMILES>
C[C@H]1OC(O)[C@H](NC(C)=O)[C@@H](O[C@@H]2O[C@H]([C@@H](O)[C@@H](O)[C@@H]2NC(C)=O)C(O)=O)[C@@H]1O

> <INCHI>
InChI=1S/C16H26N2O11/c1-4-9(21)12(8(15(26)27-4)18-6(3)20)28-16-7(17-5(2)19)10(22)11(23)13(29-16)14(24)25/h4,7-13,15-16,21-23,26H,1-3H3,(H,17,19)(H,18,20)(H,24,25)/t4-,7+,8-,9-,10+,11+,12-,13-,15?,16-/m1/s1

> <INCHIKEY>
XYZHKJQHXUZGSK-PTCRCJAKSA-N

> <PUBMED_CITATION>
1698155

$$$$

Marvin  04231011132D          

 46 49  0  0  1  0            999 V2000
   12.0015  -24.9104    0.0000 C   0  0  1  0  0  0  0  0  0  0  0  0
   12.0047  -24.0854    0.0000 O   0  0  0  0  0  0  0  0  0  0  0  0
   12.7159  -25.3229    0.0000 C   0  0  2  0  0  0  0  0  0  0  0  0
   13.4337  -24.9104    0.0000 O   0  0  0  0  0  0  0  0  0  0  0  0
   12.7126  -26.1479    0.0000 C   0  0  2  0  0  0  0  0  0  0  0  0
   13.4271  -26.5604    0.0000 O   0  0  0  0  0  0  0  0  0  0  0  0
   11.9949  -26.5604    0.0000 C   0  0  1  0  0  0  0  0  0  0  0  0
   11.9916  -27.3854    0.0000 O   0  0  0  0  0  0  0  0  0  0  0  0
   11.2804  -26.1479    0.0000 C   0  0  1  0  0  0  0  0  0  0  0  0
   11.2837  -25.3229    0.0000 O   0  0  0  0  0  0  0  0  0  0  0  0
   10.5751  -26.5533    0.0000 C   0  0  0  0  0  0  0  0  0  0  0  0
   11.2903  -22.8479    0.0000 C   0  0  2  0  0  0  0  0  0  0  0  0
   11.2903  -23.6729    0.0000 C   0  0  1  0  0  0  0  0  0  0  0  0
   10.5758  -22.4354    0.0000 O   0  0  0  0  0  0  0  0  0  0  0  0
   10.5758  -24.0854    0.0000 C   0  0  2  0  0  0  0  0  0  0  0  0
    9.8613  -22.8479    0.0000 C   0  0  1  0  0  0  0  0  0  0  0  0
    9.8613  -23.6729    0.0000 C   0  0  2  0  0  0  0  0  0  0  0  0
   12.0047  -22.4354    0.0000 O   0  0  0  0  0  0  0  0  0  0  0  0
   10.5758  -24.9104    0.0000 O   0  0  0  0  0  0  0  0  0  0  0  0
    9.1468  -24.0854    0.0000 O   0  0  0  0  0  0  0  0  0  0  0  0
    9.1468  -22.4354    0.0000 C   0  0  0  0  0  0  0  0  0  0  0  0
    8.4324  -22.8479    0.0000 O   0  0  0  0  0  0  0  0  0  0  0  0
   12.7193  -20.3729    0.0000 C   0  0  2  0  0  0  0  0  0  0  0  0
   12.7193  -21.1979    0.0000 C   0  0  1  0  0  0  0  0  0  0  0  0
   12.0047  -19.9604    0.0000 O   0  0  0  0  0  0  0  0  0  0  0  0
   12.0047  -21.6104    0.0000 C   0  0  2  0  0  0  0  0  0  0  0  0
   11.2903  -20.3729    0.0000 C   0  0  1  0  0  0  0  0  0  0  0  0
   11.2903  -21.1979    0.0000 C   0  0  1  0  0  0  0  0  0  0  0  0
   13.4337  -19.9604    0.0000 O   0  0  0  0  0  0  0  0  0  0  0  0
   13.4337  -21.6104    0.0000 N   0  0  0  0  0  0  0  0  0  0  0  0
   10.5758  -21.6104    0.0000 O   0  0  0  0  0  0  0  0  0  0  0  0
   10.5758  -19.9604    0.0000 C   0  0  0  0  0  0  0  0  0  0  0  0
    9.8614  -20.3729    0.0000 O   0  0  0  0  0  0  0  0  0  0  0  0
   14.1482  -21.1979    0.0000 C   0  0  0  0  0  0  0  0  0  0  0  0
   14.1483  -20.3729    0.0000 O   0  0  0  0  0  0  0  0  0  0  0  0
   14.8627  -21.6104    0.0000 C   0  0  0  0  0  0  0  0  0  0  0  0
   14.1458  -17.8993    0.0000 C   0  0  1  0  0  0  0  0  0  0  0  0
   14.8610  -17.4883    0.0000 O   0  0  0  0  0  0  0  0  0  0  0  0
   14.1474  -18.7243    0.0000 C   0  0  2  0  0  0  0  0  0  0  0  0
   14.8643  -19.1383    0.0000 O   0  0  0  0  0  0  0  0  0  0  0  0
   13.4321  -19.1354    0.0000 C   0  0  1  0  0  0  0  0  0  0  0  0
   12.7152  -18.7215    0.0000 C   0  0  1  0  0  0  0  0  0  0  0  0
   11.9999  -19.1326    0.0000 O   0  0  0  0  0  0  0  0  0  0  0  0
   12.7136  -17.8965    0.0000 C   0  0  1  0  0  0  0  0  0  0  0  0
   13.4288  -17.4854    0.0000 O   0  0  0  0  0  0  0  0  0  0  0  0
   12.0090  -17.4897    0.0000 C   0  0  0  0  0  0  0  0  0  0  0  0
  1  2  1  1  0  0  0
  3  1  1  0  0  0  0
 10  1  1  0  0  0  0
  3  4  1  6  0  0  0
  5  3  1  0  0  0  0
  5  6  1  6  0  0  0
  7  5  1  0  0  0  0
  7  8  1  1  0  0  0
  9  7  1  0  0  0  0
 10  9  1  0  0  0  0
  9 11  1  6  0  0  0
 12 13  1  0  0  0  0
 12 14  1  0  0  0  0
 13 15  1  0  0  0  0
 14 16  1  0  0  0  0
 15 17  1  0  0  0  0
 16 17  1  0  0  0  0
 12 18  1  6  0  0  0
 13  2  1  6  0  0  0
 15 19  1  1  0  0  0
 17 20  1  1  0  0  0
 16 21  1  1  0  0  0
 22 21  1  0  0  0  0
 23 24  1  0  0  0  0
 23 25  1  0  0  0  0
 24 26  1  0  0  0  0
 25 27  1  0  0  0  0
 26 28  1  0  0  0  0
 27 28  1  0  0  0  0
 23 29  1  6  0  0  0
 24 30  1  6  0  0  0
 26 18  1  1  0  0  0
 28 31  1  6  0  0  0
 27 32  1  1  0  0  0
 33 32  1  0  0  0  0
 35 34  2  0  0  0  0
 36 34  1  0  0  0  0
 30 34  1  0  0  0  0
 37 38  1  1  0  0  0
 39 37  1  0  0  0  0
 45 37  1  0  0  0  0
 39 40  1  6  0  0  0
 41 39  1  0  0  0  0
 41 29  1  6  0  0  0
 42 41  1  0  0  0  0
 42 43  1  1  0  0  0
 44 42  1  0  0  0  0
 45 44  1  0  0  0  0
 44 46  1  6  0  0  0
M  END
> <ID>
CHEBI:59279

> <NAME>
alpha-L-Rhap-(1->2)-alpha-D-Galp-(1->3)-alpha-D-GlcNAc-(1->3)-alpha-L-Rhap

> <DEFINITION>
A tetrasaccharide derivative consisting of α-L-rhamnose, α-D-galactose, N-acetyl-α-D-glucosamine and α-L-rhamnose residues in a linear (1→2, (1→3), (1→3) sequence.

> <STAR>
3

> <SYNONYM>
Rhaalpha1-2Galalpha1-3GlcNAcalpha1-3Rhaalpha; alpha-L-Rha-(1->2)-alpha-D-Gal-(1->3)-alpha-D-GlcNAc-(1->3)-alpha-L-Rha; 6-deoxy-alpha-L-mannopyranosyl-(1->2)-alpha-D-galactopyranosyl-(1->3)-2-acetamido-2-deoxy-alpha-D-glucopyranosyl-(1->3)-6-deoxy-alpha-L-mannopyranose

> <IUPAC_NAME>
alpha-L-rhamnopyranosyl-(1->2)-alpha-D-galactopyranosyl-(1->3)-2-acetamido-2-deoxy-alpha-D-glucopyranosyl-(1->3)-alpha-L-rhamnopyranose

> <FORMULA>
C26H45NO19

> <MASS>
675.63080

> <MONOISOTOPIC_MASS>
675.25858

> <CHARGE>
0

> <SMILES>
C[C@@H]1O[C@@H](O[C@@H]2[C@@H](O)[C@@H](O)[C@@H](CO)O[C@@H]2O[C@H]2[C@H](O)[C@@H](CO)O[C@H](O[C@@H]3[C@@H](O)[C@H](C)O[C@@H](O)[C@@H]3O)[C@@H]2NC(C)=O)[C@H](O)[C@H](O)[C@H]1O

> <INCHI>
InChI=1S/C26H45NO19/c1-6-12(31)16(35)18(37)25(41-6)46-22-17(36)14(33)9(4-28)43-26(22)44-20-11(27-8(3)30)24(42-10(5-29)15(20)34)45-21-13(32)7(2)40-23(39)19(21)38/h6-7,9-26,28-29,31-39H,4-5H2,1-3H3,(H,27,30)/t6-,7-,9+,10+,11+,12-,13-,14-,15+,16+,17-,18+,19+,20+,21+,22+,23+,24+,25-,26+/m0/s1

> <INCHIKEY>
JZBSZCXQNKTYPL-HIWOZMAMSA-N

> <PUBMED_CITATION>
9129157

$$$$

Marvin  04231012012D          

 22 23  0  0  1  0            999 V2000
   21.7921  -20.5369    0.0000 C   0  0  2  0  0  0  0  0  0  0  0  0
   22.5066  -20.9494    0.0000 C   0  0  1  0  0  0  0  0  0  0  0  0
   22.5033  -21.7744    0.0000 C   0  0  1  0  0  0  0  0  0  0  0  0
   21.7855  -22.1869    0.0000 C   0  0  2  0  0  0  0  0  0  0  0  0
   21.0711  -21.7744    0.0000 C   0  0  2  0  0  0  0  0  0  0  0  0
   20.3657  -22.1798    0.0000 C   0  0  0  0  0  0  0  0  0  0  0  0
   21.7954  -19.7119    0.0000 O   0  0  0  0  0  0  0  0  0  0  0  0
   23.2243  -20.5369    0.0000 O   0  0  0  0  0  0  0  0  0  0  0  0
   23.2178  -22.1869    0.0000 O   0  0  0  0  0  0  0  0  0  0  0  0
   21.7823  -23.0119    0.0000 O   0  0  0  0  0  0  0  0  0  0  0  0
   21.0743  -20.9494    0.0000 O   0  0  0  0  0  0  0  0  0  0  0  0
   21.0809  -18.4744    0.0000 C   0  0  2  0  0  0  0  0  0  0  0  0
   21.0809  -19.2994    0.0000 C   0  0  1  0  0  0  0  0  0  0  0  0
   20.3664  -18.0619    0.0000 O   0  0  0  0  0  0  0  0  0  0  0  0
   20.3664  -19.7119    0.0000 C   0  0  2  0  0  0  0  0  0  0  0  0
   19.6520  -18.4744    0.0000 C   0  0  1  0  0  0  0  0  0  0  0  0
   19.6520  -19.2994    0.0000 C   0  0  2  0  0  0  0  0  0  0  0  0
   21.7954  -18.0619    0.0000 O   0  0  0  0  0  0  0  0  0  0  0  0
   20.3664  -20.5369    0.0000 O   0  0  0  0  0  0  0  0  0  0  0  0
   18.9375  -19.7119    0.0000 O   0  0  0  0  0  0  0  0  0  0  0  0
   18.9375  -18.0619    0.0000 C   0  0  0  0  0  0  0  0  0  0  0  0
   18.2230  -18.4744    0.0000 O   0  0  0  0  0  0  0  0  0  0  0  0
  1  7  1  1  0  0  0
  2  1  1  0  0  0  0
 11  1  1  0  0  0  0
  2  8  1  6  0  0  0
  3  2  1  0  0  0  0
  3  9  1  6  0  0  0
  4  3  1  0  0  0  0
  4 10  1  1  0  0  0
  5  4  1  0  0  0  0
 11  5  1  0  0  0  0
  5  6  1  6  0  0  0
 12 13  1  0  0  0  0
 12 14  1  0  0  0  0
 13 15  1  0  0  0  0
 14 16  1  0  0  0  0
 15 17  1  0  0  0  0
 16 17  1  0  0  0  0
 12 18  1  6  0  0  0
 13  7  1  6  0  0  0
 15 19  1  1  0  0  0
 17 20  1  1  0  0  0
 16 21  1  1  0  0  0
 22 21  1  0  0  0  0
M  END
> <ID>
CHEBI:59280

> <NAME>
alpha-L-rhamnopyranosyl-(1->2)-alpha-D-galactopyranose

> <DEFINITION>
A disaccharide consisting of α-L-rhamnose and α-D-galactose linked via a 1→2 glycosidic bond.

> <STAR>
3

> <SYNONYM>
Rhaalpha1-2Galalpha; alpha-L-Rhap-(1->2)-alpha-D-Galp; alpha-L-rhamnosyl-(1->2)-alpha-D-galactose; 6-deoxy-alpha-L-mannopyranosyl-(1->2)-alpha-D-galactopyranose; 2-O-(alpha-L-rhamnopyranosyl)-alpha-D-galactopyranose; 2-O-(6-deoxy-alpha-L-mannopyranosyl)-alpha-D-galactopyranose

> <IUPAC_NAME>
alpha-L-rhamnopyranosyl-(1->2)-alpha-D-galactopyranose

> <FORMULA>
C12H22O10

> <MASS>
326.29710

> <MONOISOTOPIC_MASS>
326.12130

> <CHARGE>
0

> <SMILES>
C[C@@H]1O[C@@H](O[C@H]2[C@@H](O)O[C@H](CO)[C@H](O)[C@@H]2O)[C@H](O)[C@H](O)[C@H]1O

> <INCHI>
InChI=1S/C12H22O10/c1-3-5(14)7(16)9(18)12(20-3)22-10-8(17)6(15)4(2-13)21-11(10)19/h3-19H,2H2,1H3/t3-,4+,5-,6-,7+,8-,9+,10+,11-,12-/m0/s1

> <INCHIKEY>
VSRVRBXGIRFARR-QASCNTAFSA-N

> <PUBMED_CITATION>
9129157

$$$$

Marvin  04261009522D          

 21 22  0  0  1  0            999 V2000
   14.8383   -4.1052    0.0000 C   0  0  2  0  0  0  0  0  0  0  0  0
   14.8383   -4.9302    0.0000 C   0  0  2  0  0  0  0  0  0  0  0  0
   14.1238   -3.6927    0.0000 O   0  0  0  0  0  0  0  0  0  0  0  0
   14.1238   -5.3427    0.0000 C   0  0  2  0  0  0  0  0  0  0  0  0
   13.4094   -4.1052    0.0000 C   0  0  1  0  0  0  0  0  0  0  0  0
   13.4094   -4.9302    0.0000 C   0  0  1  0  0  0  0  0  0  0  0  0
   15.5527   -3.6926    0.0000 O   0  0  0  0  0  0  0  0  0  0  0  0
   15.5527   -5.3427    0.0000 O   0  0  0  0  0  0  0  0  0  0  0  0
   14.1238   -6.1677    0.0000 O   0  0  0  0  0  0  0  0  0  0  0  0
   12.6948   -5.3427    0.0000 O   0  0  0  0  0  0  0  0  0  0  0  0
   12.6948   -3.6927    0.0000 C   0  0  0  0  0  0  0  0  0  0  0  0
   11.9804   -4.1052    0.0000 O   0  0  0  0  0  0  0  0  0  0  0  0
   13.4093   -6.5802    0.0000 C   0  0  2  0  0  0  0  0  0  0  0  0
   13.4093   -7.4052    0.0000 C   0  0  2  0  0  0  0  0  0  0  0  0
   12.6948   -6.1677    0.0000 O   0  0  0  0  0  0  0  0  0  0  0  0
   12.6948   -7.8177    0.0000 C   0  0  0  0  0  0  0  0  0  0  0  0
   11.9803   -6.5802    0.0000 C   0  0  1  0  0  0  0  0  0  0  0  0
   11.9803   -7.4052    0.0000 C   0  0  1  0  0  0  0  0  0  0  0  0
   14.1238   -7.8177    0.0000 O   0  0  0  0  0  0  0  0  0  0  0  0
   11.2658   -7.8177    0.0000 O   0  0  0  0  0  0  0  0  0  0  0  0
   11.2658   -6.1677    0.0000 C   0  0  0  0  0  0  0  0  0  0  0  0
  1  2  1  0  0  0  0
  1  3  1  0  0  0  0
  2  4  1  0  0  0  0
  3  5  1  0  0  0  0
  4  6  1  0  0  0  0
  5  6  1  0  0  0  0
  1  7  1  6  0  0  0
  2  8  1  1  0  0  0
  4  9  1  1  0  0  0
  6 10  1  6  0  0  0
  5 11  1  1  0  0  0
 12 11  1  0  0  0  0
 13 14  1  0  0  0  0
 13 15  1  0  0  0  0
 14 16  1  0  0  0  0
 15 17  1  0  0  0  0
 16 18  1  0  0  0  0
 17 18  1  0  0  0  0
 13  9  1  6  0  0  0
 14 19  1  1  0  0  0
 18 20  1  6  0  0  0
 17 21  1  1  0  0  0
M  END
> <ID>
CHEBI:59286

> <NAME>
alpha-tyvelopyranosyl-(1->3)-alpha-D-mannopyranose

> <DEFINITION>
A glycosylmannose consisting of α-D-mannopyranose having a tyvelopyranosyl residue attached via an α-(1→3)-linkage

> <STAR>
3

> <SYNONYM>
Tyvalpha1-3Manalpha; alpha-Tyvp-(1->3)-alpha-D-Manp; alpha-Tyv-(1->3)-alpha-D-Man; 3-O-alpha-tyvelopyranosyl-alpha-D-mannopyranose; 3-O-(3,6-dideoxy-alpha-D-mannopyranosyl)-alpha-D-mannopyranose; 3-O-(3,6-dideoxy-alpha-D-arabino-hexopyranosyl)-alpha-D-mannopyranose

> <IUPAC_NAME>
3,6-dideoxy-alpha-D-arabino-hexopyranosyl-(1->3)-alpha-D-mannopyranose

> <FORMULA>
C12H22O9

> <MASS>
310.29770

> <MONOISOTOPIC_MASS>
310.12638

> <CHARGE>
0

> <SMILES>
C[C@H]1O[C@H](O[C@@H]2[C@H](O)[C@@H](O)O[C@H](CO)[C@H]2O)[C@@H](O)C[C@@H]1O

> <INCHI>
InChI=1S/C12H22O9/c1-4-5(14)2-6(15)12(19-4)21-10-8(16)7(3-13)20-11(18)9(10)17/h4-18H,2-3H2,1H3/t4-,5+,6+,7-,8-,9+,10+,11+,12-/m1/s1

> <INCHIKEY>
QVRWXXYMZHICKL-JEFBLGPNSA-N

> <PUBMED_CITATION>
327249; 4139117

$$$$

Marvin  04261011202D          

 33 34  0  0  1  0            999 V2000
   16.3692   -3.5422    0.0000 O   0  0  0  0  0  0  0  0  0  0  0  0
   15.6547   -3.9547    0.0000 C   0  0  1  0  0  0  0  0  0  0  0  0
   21.3703   -4.7802    0.0000 C   0  0  0  0  0  0  0  0  0  0  0  0
   20.6557   -3.5428    0.0000 O   0  0  0  0  0  0  0  0  0  0  0  0
   20.6559   -5.1927    0.0000 C   0  0  1  0  0  0  0  0  0  0  0  0
   20.6559   -6.0178    0.0000 O   0  0  0  0  0  0  0  0  0  0  0  0
   19.9413   -4.7803    0.0000 C   0  0  2  0  0  0  0  0  0  0  0  0
   21.3703   -3.9553    0.0000 C   0  0  2  0  0  0  0  0  0  0  0  0
   19.9413   -3.9553    0.0000 C   0  0  1  0  0  0  0  0  0  0  0  0
   17.0836   -3.9547    0.0000 C   0  0  2  0  0  0  0  0  0  0  0  0
   17.0836   -4.7797    0.0000 C   0  0  0  0  0  0  0  0  0  0  0  0
   16.3692   -5.1923    0.0000 C   0  0  2  0  0  0  0  0  0  0  0  0
   15.6547   -4.7797    0.0000 C   0  0  1  0  0  0  0  0  0  0  0  0
   19.2271   -3.5427    0.0000 C   0  0  1  0  0  0  0  0  0  0  0  0
   19.2271   -5.1928    0.0000 O   0  0  0  0  0  0  0  0  0  0  0  0
   18.5123   -3.9549    0.0000 C   0  0  0  0  0  0  0  0  0  0  0  0
   19.2273   -2.7177    0.0000 O   0  0  0  0  0  0  0  0  0  0  0  0
   17.0836   -3.1298    0.0000 C   0  0  0  0  0  0  0  0  0  0  0  0
   17.7981   -3.5422    0.0000 O   0  0  0  0  0  0  0  0  0  0  0  0
   16.3692   -2.7172    0.0000 O   0  0  0  0  0  0  0  0  0  0  0  0
   17.7981   -2.7173    0.0000 O   0  0  0  0  0  0  0  0  0  0  0  0
   22.0849   -3.5428    0.0000 O   0  0  0  0  0  0  0  0  0  0  0  0
   20.6559   -2.7177    0.0000 O   0  0  0  0  0  0  0  0  0  0  0  0
   21.3704   -3.1302    0.0000 C   0  0  0  0  0  0  0  0  0  0  0  0
   22.0849   -2.7178    0.0000 O   0  0  0  0  0  0  0  0  0  0  0  0
   19.2271   -4.3677    0.0000 H   0  0  0  0  0  0  0  0  0  0  0  0
   14.9403   -3.5421    0.0000 C   0  0  1  0  0  0  0  0  0  0  0  0
   16.3691   -6.0173    0.0000 O   0  0  0  0  0  0  0  0  0  0  0  0
   14.9402   -5.1921    0.0000 O   0  0  0  0  0  0  0  0  0  0  0  0
   15.6547   -3.1297    0.0000 H   0  0  0  0  0  0  0  0  0  0  0  0
   13.5114   -3.5422    0.0000 O   0  0  0  0  0  0  0  0  0  0  0  0
   14.2259   -3.9546    0.0000 C   0  0  0  0  0  0  0  0  0  0  0  0
   14.9403   -2.7171    0.0000 O   0  0  0  0  0  0  0  0  0  0  0  0
  2  1  1  0  0  0  0
 27  2  1  0  0  0  0
  2 30  1  6  0  0  0
  5  3  1  0  0  0  0
  5  6  1  1  0  0  0
  7  5  1  0  0  0  0
  7 15  1  1  0  0  0
  8  4  1  0  0  0  0
  8  3  1  0  0  0  0
  8 22  1  6  0  0  0
  8 24  1  0  0  0  0
  9  7  1  0  0  0  0
  9  4  1  0  0  0  0
  9 14  1  0  0  0  0
  9 26  1  6  0  0  0
 10  1  1  0  0  0  0
 10 18  1  0  0  0  0
 10 11  1  0  0  0  0
 12 11  1  0  0  0  0
 12 28  1  1  0  0  0
 13 12  1  0  0  0  0
  2 13  1  0  0  0  0
 13 29  1  1  0  0  0
 14 16  1  0  0  0  0
 14 17  1  1  0  0  0
 16 19  1  0  0  0  0
 18 20  1  0  0  0  0
 18 21  2  0  0  0  0
 24 23  1  0  0  0  0
 24 25  2  0  0  0  0
 27 33  1  1  0  0  0
 27 32  1  0  0  0  0
 32 31  1  0  0  0  0
 10 19  1  6  0  0  0
M  END
> <ID>
CHEBI:59291

> <NAME>
alpha-Kdo-(2->8)-alpha-Kdo

> <DEFINITION>
A disaccharide consisting of two 3-deoxy-α-D-manno-oct-2-ulopyranonosyl units joined via an α-(2→8)-linkage.

> <STAR>
3

> <SYNONYM>
Kdoalpha2->8Kdoalpha; alpha-D-Kdo-(2->8)-alpha-D-Kdo; 3-deoxy-8-O-(3-deoxy-alpha-D-manno-oct-2-ulopyranonosyl)-alpha-D-manno-oct-2-ulopyranosonic acid; (Kdo)2

> <IUPAC_NAME>
3-deoxy-alpha-D-manno-oct-2-ulopyranonosyl-(2->8)-3-deoxy-alpha-D-manno-oct-2-ulopyranosonic acid

> <FORMULA>
C16H26O15

> <MASS>
458.36860

> <MONOISOTOPIC_MASS>
458.12717

> <CHARGE>
0

> <SMILES>
[H][C@@]1(O[C@](O)(C[C@@H](O)[C@H]1O)C(O)=O)[C@H](O)CO[C@@]1(C[C@@H](O)[C@@H](O)[C@]([H])(O1)[C@H](O)CO)C(O)=O

> <INCHI>
InChI=1S/C16H26O15/c17-3-7(20)11-10(23)6(19)2-16(31-11,14(26)27)29-4-8(21)12-9(22)5(18)1-15(28,30-12)13(24)25/h5-12,17-23,28H,1-4H2,(H,24,25)(H,26,27)/t5-,6-,7-,8-,9-,10-,11-,12-,15-,16-/m1/s1

> <INCHIKEY>
FSEWYZAGVUQKLQ-NNZUOWEZSA-N

> <KEGG_GLYCAN_ACCESSION>
G00970

> <PUBMED_CITATION>
1372290; 14625588; 19767317

$$$$

Marvin  04261011572D          

 49 51  0  0  1  0            999 V2000
   16.3693   -3.5423    0.0000 O   0  0  0  0  0  0  0  0  0  0  0  0
   15.6548   -3.9548    0.0000 C   0  0  1  0  0  0  0  0  0  0  0  0
   21.3704   -4.7803    0.0000 C   0  0  0  0  0  0  0  0  0  0  0  0
   20.6558   -3.5428    0.0000 O   0  0  0  0  0  0  0  0  0  0  0  0
   20.6560   -5.1928    0.0000 C   0  0  1  0  0  0  0  0  0  0  0  0
   20.6560   -6.0178    0.0000 O   0  0  0  0  0  0  0  0  0  0  0  0
   19.9414   -4.7803    0.0000 C   0  0  2  0  0  0  0  0  0  0  0  0
   21.3704   -3.9553    0.0000 C   0  0  2  0  0  0  0  0  0  0  0  0
   19.9414   -3.9553    0.0000 C   0  0  1  0  0  0  0  0  0  0  0  0
   17.0837   -3.9548    0.0000 C   0  0  2  0  0  0  0  0  0  0  0  0
   17.0837   -4.7798    0.0000 C   0  0  0  0  0  0  0  0  0  0  0  0
   16.3693   -5.1923    0.0000 C   0  0  2  0  0  0  0  0  0  0  0  0
   15.6548   -4.7798    0.0000 C   0  0  1  0  0  0  0  0  0  0  0  0
   19.2271   -3.5428    0.0000 C   0  0  1  0  0  0  0  0  0  0  0  0
   19.2271   -5.1928    0.0000 O   0  0  0  0  0  0  0  0  0  0  0  0
   18.5124   -3.9549    0.0000 C   0  0  0  0  0  0  0  0  0  0  0  0
   19.2274   -2.7177    0.0000 O   0  0  0  0  0  0  0  0  0  0  0  0
   17.0837   -3.1298    0.0000 C   0  0  0  0  0  0  0  0  0  0  0  0
   17.7982   -3.5423    0.0000 O   0  0  0  0  0  0  0  0  0  0  0  0
   16.3693   -2.7173    0.0000 O   0  0  0  0  0  0  0  0  0  0  0  0
   17.7982   -2.7173    0.0000 O   0  0  0  0  0  0  0  0  0  0  0  0
   22.0850   -3.5428    0.0000 O   0  0  0  0  0  0  0  0  0  0  0  0
   20.6560   -2.7177    0.0000 O   0  0  0  0  0  0  0  0  0  0  0  0
   21.3705   -3.1303    0.0000 C   0  0  0  0  0  0  0  0  0  0  0  0
   22.0850   -2.7178    0.0000 O   0  0  0  0  0  0  0  0  0  0  0  0
   19.2271   -4.3678    0.0000 H   0  0  0  0  0  0  0  0  0  0  0  0
   14.9404   -3.5421    0.0000 C   0  0  1  0  0  0  0  0  0  0  0  0
   16.3692   -6.0173    0.0000 O   0  0  0  0  0  0  0  0  0  0  0  0
   14.9403   -5.1921    0.0000 O   0  0  0  0  0  0  0  0  0  0  0  0
   15.6548   -3.1298    0.0000 H   0  0  0  0  0  0  0  0  0  0  0  0
   13.5115   -3.5423    0.0000 O   0  0  0  0  0  0  0  0  0  0  0  0
   14.2260   -3.9546    0.0000 C   0  0  0  0  0  0  0  0  0  0  0  0
   14.9404   -2.7171    0.0000 O   0  0  0  0  0  0  0  0  0  0  0  0
   22.7994   -4.7803    0.0000 C   0  0  0  0  0  0  0  0  0  0  0  0
   24.2283   -4.7803    0.0000 O   0  0  0  0  0  0  0  0  0  0  0  0
   22.7994   -3.9553    0.0000 C   0  0  2  0  0  0  0  0  0  0  0  0
   23.5138   -3.5428    0.0000 C   0  0  2  0  0  0  0  0  0  0  0  0
   23.5138   -5.1928    0.0000 C   0  0  2  0  0  0  0  0  0  0  0  0
   24.2283   -3.9553    0.0000 C   0  0  1  0  0  0  0  0  0  0  0  0
   24.9428   -3.5430    0.0000 C   0  0  1  0  0  0  0  0  0  0  0  0
   23.5138   -2.7179    0.0000 O   0  0  0  0  0  0  0  0  0  0  0  0
   25.6572   -3.9555    0.0000 C   0  0  0  0  0  0  0  0  0  0  0  0
   24.9428   -2.7181    0.0000 O   0  0  0  0  0  0  0  0  0  0  0  0
   26.3716   -3.5431    0.0000 O   0  0  0  0  0  0  0  0  0  0  0  0
   23.5137   -6.0179    0.0000 O   0  0  0  0  0  0  0  0  0  0  0  0
   24.9427   -5.1930    0.0000 O   0  0  0  0  0  0  0  0  0  0  0  0
   24.2282   -5.6055    0.0000 C   0  0  0  0  0  0  0  0  0  0  0  0
   24.2281   -6.4305    0.0000 O   0  0  0  0  0  0  0  0  0  0  0  0
   24.2283   -3.1306    0.0000 H   0  0  0  0  0  0  0  0  0  0  0  0
  2  1  1  0  0  0  0
 27  2  1  0  0  0  0
  2 30  1  6  0  0  0
  5  3  1  0  0  0  0
  5  6  1  1  0  0  0
  7  5  1  0  0  0  0
  7 15  1  1  0  0  0
  8  4  1  0  0  0  0
  8  3  1  0  0  0  0
  8 22  1  6  0  0  0
  8 24  1  0  0  0  0
  9  7  1  0  0  0  0
  9  4  1  0  0  0  0
  9 14  1  0  0  0  0
  9 26  1  6  0  0  0
 10  1  1  0  0  0  0
 10 18  1  0  0  0  0
 10 11  1  0  0  0  0
 12 11  1  0  0  0  0
 12 28  1  1  0  0  0
 13 12  1  0  0  0  0
  2 13  1  0  0  0  0
 13 29  1  1  0  0  0
 14 16  1  0  0  0  0
 14 17  1  1  0  0  0
 16 19  1  0  0  0  0
 18 20  1  0  0  0  0
 18 21  2  0  0  0  0
 24 23  1  0  0  0  0
 24 25  2  0  0  0  0
 27 33  1  1  0  0  0
 27 32  1  0  0  0  0
 32 31  1  0  0  0  0
 10 19  1  6  0  0  0
 36 34  1  0  0  0  0
 36 22  1  1  0  0  0
 37 36  1  0  0  0  0
 37 41  1  1  0  0  0
 38 35  1  0  0  0  0
 38 34  1  0  0  0  0
 38 45  1  6  0  0  0
 38 47  1  0  0  0  0
 39 37  1  0  0  0  0
 39 35  1  0  0  0  0
 39 40  1  0  0  0  0
 39 49  1  6  0  0  0
 40 42  1  0  0  0  0
 40 43  1  6  0  0  0
 42 44  1  0  0  0  0
 47 46  1  0  0  0  0
 47 48  2  0  0  0  0
M  END
> <ID>
CHEBI:59292

> <NAME>
alpha-Kdo-(2->8)-alpha-Kdo-(2->4)-alpha-Kdo

> <DEFINITION>
A trisaccharide consisting of three 3-deoxy-α-D-manno-oct-2-ulopyranonosyl units in a linear sequence.

> <STAR>
3

> <SYNONYM>
Kdoalpha2-8Kdoalpha2-4Kdoalpha

> <IUPAC_NAME>
3-deoxy-alpha-D-manno-oct-2-ulopyranonosyl-(2->8)-3-deoxy-alpha-D-manno-oct-2-ulopyranonosyl-(2->4)-3-deoxy-alpha-D-manno-oct-2-ulopyranosonic acid

> <FORMULA>
C24H38O22

> <MASS>
678.54530

> <MONOISOTOPIC_MASS>
678.18547

> <CHARGE>
0

> <SMILES>
[H][C@@]1(O[C@@](C[C@@H](O)[C@H]1O)(OC[C@@H](O)[C@@]1([H])O[C@@](C[C@@H](O)[C@H]1O)(O[C@@H]1C[C@@](O)(O[C@]([H])([C@H](O)CO)[C@@H]1O)C(O)=O)C(O)=O)C(O)=O)[C@H](O)CO

> <INCHI>
InChI=1S/C24H38O22/c25-4-9(29)16-13(32)7(27)1-23(45-16,20(37)38)42-6-11(31)18-14(33)8(28)2-24(46-18,21(39)40)43-12-3-22(41,19(35)36)44-17(15(12)34)10(30)5-26/h7-18,25-34,41H,1-6H2,(H,35,36)(H,37,38)(H,39,40)/t7-,8-,9-,10-,11-,12-,13-,14-,15-,16-,17-,18-,22-,23-,24-/m1/s1

> <INCHIKEY>
GWUOCEYDSDYWMC-VGCKMWDQSA-N

> <PUBMED_CITATION>
1372290

$$$$

Marvin  04261014222D          

 36 38  0  0  1  0            999 V2000
   11.0731   -5.1705    0.0000 C   0  0  1  0  0  0  0  0  0  0  0  0
   11.7876   -4.7580    0.0000 C   0  0  2  0  0  0  0  0  0  0  0  0
   11.0731   -5.9954    0.0000 O   0  0  0  0  0  0  0  0  0  0  0  0
   10.3587   -4.7580    0.0000 C   0  0  1  0  0  0  0  0  0  0  0  0
   11.7876   -3.9330    0.0000 C   0  0  1  0  0  0  0  0  0  0  0  0
   10.3587   -3.9330    0.0000 C   0  0  2  0  0  0  0  0  0  0  0  0
    9.6442   -5.1705    0.0000 O   0  0  0  0  0  0  0  0  0  0  0  0
   11.0731   -3.5205    0.0000 O   0  0  0  0  0  0  0  0  0  0  0  0
   12.5020   -3.5205    0.0000 O   0  0  0  0  0  0  0  0  0  0  0  0
    9.6442   -3.5205    0.0000 C   0  0  0  0  0  0  0  0  0  0  0  0
   12.5020   -5.1705    0.0000 N   0  0  0  0  0  0  0  0  0  0  0  0
   13.2165   -4.7580    0.0000 C   0  0  0  0  0  0  0  0  0  0  0  0
   13.9309   -5.1705    0.0000 C   0  0  0  0  0  0  0  0  0  0  0  0
   13.2165   -3.9330    0.0000 O   0  0  0  0  0  0  0  0  0  0  0  0
    9.6442   -2.6955    0.0000 O   0  0  0  0  0  0  0  0  0  0  0  0
    7.5008   -3.9329    0.0000 C   0  0  2  0  0  0  0  0  0  0  0  0
    7.5008   -4.7579    0.0000 C   0  0  1  0  0  0  0  0  0  0  0  0
    8.9297   -4.7580    0.0000 C   0  0  2  0  0  0  0  0  0  0  0  0
    8.9297   -3.9330    0.0000 O   0  0  0  0  0  0  0  0  0  0  0  0
    8.2153   -5.1704    0.0000 C   0  0  2  0  0  0  0  0  0  0  0  0
    8.2153   -3.5204    0.0000 C   0  0  2  0  0  0  0  0  0  0  0  0
    8.2152   -5.9954    0.0000 O   0  0  0  0  0  0  0  0  0  0  0  0
    6.7863   -5.1704    0.0000 O   0  0  0  0  0  0  0  0  0  0  0  0
    6.7864   -3.5205    0.0000 O   0  0  0  0  0  0  0  0  0  0  0  0
    8.2153   -2.6955    0.0000 C   0  0  0  0  0  0  0  0  0  0  0  0
    7.5009   -2.2830    0.0000 O   0  0  0  0  0  0  0  0  0  0  0  0
   10.3586   -7.2329    0.0000 O   0  0  0  0  0  0  0  0  0  0  0  0
   10.3585   -8.0579    0.0000 C   0  0  2  0  0  0  0  0  0  0  0  0
   11.0731   -6.8204    0.0000 C   0  0  2  0  0  0  0  0  0  0  0  0
   11.7875   -7.2329    0.0000 C   0  0  2  0  0  0  0  0  0  0  0  0
   11.7874   -8.0579    0.0000 C   0  0  1  0  0  0  0  0  0  0  0  0
   11.0730   -8.4704    0.0000 C   0  0  2  0  0  0  0  0  0  0  0  0
   12.5020   -6.8205    0.0000 O   0  0  0  0  0  0  0  0  0  0  0  0
   12.5019   -8.4705    0.0000 O   0  0  0  0  0  0  0  0  0  0  0  0
   11.0730   -9.2954    0.0000 O   0  0  0  0  0  0  0  0  0  0  0  0
    9.6440   -8.4703    0.0000 C   0  0  0  0  0  0  0  0  0  0  0  0
  1  2  1  0  0  0  0
  1  3  1  1  0  0  0
  1  4  1  0  0  0  0
  2  5  1  0  0  0  0
  2 11  1  6  0  0  0
  4  6  1  0  0  0  0
  4  7  1  6  0  0  0
  5  8  1  0  0  0  0
  5  9  1  1  0  0  0
  6 10  1  1  0  0  0
  6  8  1  0  0  0  0
 11 12  1  0  0  0  0
 12 13  1  0  0  0  0
 12 14  2  0  0  0  0
 10 15  1  0  0  0  0
 16 24  1  1  0  0  0
 17 16  1  0  0  0  0
 17 23  1  1  0  0  0
 18 19  1  0  0  0  0
 18 20  1  0  0  0  0
 20 17  1  0  0  0  0
 20 22  1  6  0  0  0
 21 16  1  0  0  0  0
 19 21  1  0  0  0  0
 21 25  1  1  0  0  0
 25 26  1  0  0  0  0
 18  7  1  1  0  0  0
 28 27  1  0  0  0  0
 29 27  1  0  0  0  0
 29  3  1  1  0  0  0
 29 30  1  0  0  0  0
 30 33  1  1  0  0  0
 30 31  1  0  0  0  0
 31 34  1  6  0  0  0
 31 32  1  0  0  0  0
 32 28  1  0  0  0  0
 32 35  1  6  0  0  0
 28 36  1  6  0  0  0
M  END
> <ID>
CHEBI:59294

> <NAME>
alpha-L-Fucp-(1->3)-[beta-D-Galp-(1->4)]-beta-D-GlcpNAc

> <DEFINITION>
An α-L-Fucp-(1→3)-[β-D-Galp-(1→4)]-D-GlcpNAc where the glucosamine at the reducing end has β-configuration at its anomeric centre. Commonly known as Lewis x trisaccharide or Lex.

> <STAR>
3

> <SYNONYM>
Le(x); Lewis x trisaccharide; Galbeta1-4(Fucalpha1-3)GlcNAcbeta; Galb1-4(Fuca1-3)GlcNAcb; Fucalpha1-3(Galbeta1-4)GlcNAcbeta; CD15; beta-D-Galp-(1->4)-[alpha-L-Fucp-(1->3)]-beta-D-GlcpNAc; beta-D-Gal-(1->4)-[alpha-L-Fuc-(1->3)]-beta-D-GlcNAc; alpha-L-Fuc-(1->3)-[beta-D-Gal-(1->4)]-beta-D-GlcNAc; 6-deoxy-alpha-L-galactopyranosyl-(1->3)-[beta-D-galactopyranosyl-(1->4)]-2-acetamido-2-deoxy-beta-D-glucopyranose; 3-fucosyl-N-acetyllactosamine

> <IUPAC_NAME>
alpha-L-fucopyranosyl-(1->3)-[beta-D-galactopyranosyl-(1->4)]-2-acetamido-2-deoxy-beta-D-glucopyranose

> <FORMULA>
C20H35NO15

> <MASS>
529.48960

> <MONOISOTOPIC_MASS>
529.20067

> <CHARGE>
0

> <SMILES>
C[C@@H]1O[C@@H](O[C@@H]2[C@@H](NC(C)=O)[C@H](O)O[C@H](CO)[C@H]2O[C@@H]2O[C@H](CO)[C@H](O)[C@H](O)[C@H]2O)[C@@H](O)[C@H](O)[C@@H]1O

> <INCHI>
InChI=1S/C20H35NO15/c1-5-10(25)12(27)14(29)19(32-5)36-17-9(21-6(2)24)18(31)33-8(4-23)16(17)35-20-15(30)13(28)11(26)7(3-22)34-20/h5,7-20,22-23,25-31H,3-4H2,1-2H3,(H,21,24)/t5-,7+,8+,9+,10+,11-,12+,13-,14-,15+,16+,17+,18+,19-,20-/m0/s1

> <INCHIKEY>
HBBOZFUQJDYASD-LPHOMBEVSA-N

> <BEILSTEIN_REGISTRY_NUMBER>
6080156

> <REAXYS_REGISTRY_NUMBER>
6080156

> <WIKIPEDIA_ACCESSION>
CD15

> <PUBMED_CITATION>
10992504; 11254599; 18466887; 19443021; 24059473; 31537530; 8737251; 8877374; 9287311

$$$$

Marvin  04261016232D          

 35 36  0  0  1  0            999 V2000
   12.8152   -4.8195    0.0000 O   0  0  0  0  0  0  0  0  0  0  0  0
   12.1007   -4.4071    0.0000 C   0  0  1  0  0  0  0  0  0  0  0  0
   11.3862   -4.8195    0.0000 C   0  0  2  0  0  0  0  0  0  0  0  0
   11.3862   -5.6445    0.0000 C   0  0  1  0  0  0  0  0  0  0  0  0
   12.1006   -6.0570    0.0000 C   0  0  1  0  0  0  0  0  0  0  0  0
   12.8151   -5.6445    0.0000 C   0  0  1  0  0  0  0  0  0  0  0  0
   12.1007   -3.5821    0.0000 C   0  0  0  0  0  0  0  0  0  0  0  0
   10.6717   -6.0571    0.0000 O   0  0  0  0  0  0  0  0  0  0  0  0
   10.6717   -4.4071    0.0000 N   0  0  0  0  0  0  0  0  0  0  0  0
   13.5296   -6.0570    0.0000 O   0  0  0  0  0  0  0  0  0  0  0  0
   10.6717   -3.5821    0.0000 C   0  0  0  0  0  0  0  0  0  0  0  0
    9.9572   -3.1696    0.0000 C   0  0  2  0  0  0  0  0  0  0  0  0
   11.3862   -3.1697    0.0000 O   0  0  0  0  0  0  0  0  0  0  0  0
    9.9573   -2.3446    0.0000 O   0  0  0  0  0  0  0  0  0  0  0  0
    8.5283   -2.3446    0.0000 O   0  0  0  0  0  0  0  0  0  0  0  0
    8.5283   -3.1696    0.0000 C   0  0  0  0  0  0  0  0  0  0  0  0
    9.2428   -3.5821    0.0000 C   0  0  0  0  0  0  0  0  0  0  0  0
   12.1006   -6.8821    0.0000 O   0  0  0  0  0  0  0  0  0  0  0  0
   10.6717   -6.8821    0.0000 O   0  0  0  0  0  0  0  0  0  0  0  0
    9.9573   -7.2946    0.0000 C   0  0  1  0  0  0  0  0  0  0  0  0
    9.9573   -8.1195    0.0000 C   0  0  2  0  0  0  0  0  0  0  0  0
   10.6717   -8.5320    0.0000 C   0  0  1  0  0  0  0  0  0  0  0  0
   11.3862   -8.1195    0.0000 C   0  0  1  0  0  0  0  0  0  0  0  0
   11.3862   -7.2946    0.0000 C   0  0  1  0  0  0  0  0  0  0  0  0
    9.2428   -6.8821    0.0000 C   0  0  0  0  0  0  0  0  0  0  0  0
   10.6717   -9.3570    0.0000 O   0  0  0  0  0  0  0  0  0  0  0  0
   12.1006   -8.5320    0.0000 O   0  0  0  0  0  0  0  0  0  0  0  0
    9.2428   -8.5320    0.0000 N   0  0  0  0  0  0  0  0  0  0  0  0
    8.5284   -8.1195    0.0000 C   0  0  0  0  0  0  0  0  0  0  0  0
    7.8139   -8.5320    0.0000 C   0  0  2  0  0  0  0  0  0  0  0  0
    8.5284   -7.2946    0.0000 O   0  0  0  0  0  0  0  0  0  0  0  0
    7.0995   -8.1195    0.0000 O   0  0  0  0  0  0  0  0  0  0  0  0
    6.3851   -9.3570    0.0000 O   0  0  0  0  0  0  0  0  0  0  0  0
    7.0995   -9.7695    0.0000 C   0  0  0  0  0  0  0  0  0  0  0  0
    7.8139   -9.3570    0.0000 C   0  0  0  0  0  0  0  0  0  0  0  0
  1  2  1  0  0  0  0
  1  6  1  0  0  0  0
  2  3  1  0  0  0  0
  2  7  1  1  0  0  0
  3  4  1  0  0  0  0
  3  9  1  6  0  0  0
  4  5  1  0  0  0  0
  4  8  1  1  0  0  0
  5  6  1  0  0  0  0
  6 10  1  6  0  0  0
  9 11  1  0  0  0  0
 11 12  1  0  0  0  0
 11 13  2  0  0  0  0
 17 12  1  0  0  0  0
 12 14  1  1  0  0  0
 15 16  1  0  0  0  0
 16 17  1  0  0  0  0
  5 18  1  1  0  0  0
 19 20  1  0  0  0  0
 19 24  1  0  0  0  0
 20 21  1  0  0  0  0
 21 22  1  0  0  0  0
 22 23  1  0  0  0  0
 23 24  1  0  0  0  0
 20 25  1  1  0  0  0
 22 26  1  1  0  0  0
 23 27  1  1  0  0  0
 21 28  1  6  0  0  0
 24 18  1  6  0  0  0
 28 29  1  0  0  0  0
 29 30  1  0  0  0  0
 29 31  2  0  0  0  0
 35 30  1  0  0  0  0
 30 32  1  1  0  0  0
 33 34  1  0  0  0  0
 34 35  1  0  0  0  0
M  END
> <ID>
CHEBI:59298

> <NAME>
alpha-4-(3-deoxy-L-glycero-tetronoyl)amino-4,6-dideoxy-D-mannose-(1->2)-alpha-4-(3-deoxy-L-glycero-tetronoyl)-amino-4,6-dideoxy-D-mannose

> <DEFINITION>
An amino disaccharide consisting of two 4-amino-4,6-dideoxy-D-mannose residues joined by an α-(1→2)-linkage.

> <STAR>
3

> <IUPAC_NAME>
4,6-dideoxy-2-O-(4,6-dideoxy-4-{[(2R)-2,4-dihydroxybutanoyl]amino}-alpha-D-mannopyranosyl)-4-{[(2R)-2,4-dihydroxybutanoyl]amino}-alpha-D-mannopyranose

> <FORMULA>
C20H36N2O13

> <MASS>
512.50540

> <MONOISOTOPIC_MASS>
512.22174

> <CHARGE>
0

> <SMILES>
C[C@H]1O[C@H](O)[C@@H](O[C@H]2O[C@H](C)[C@@H](NC(=O)[C@H](O)CCO)[C@H](O)[C@@H]2O)[C@@H](O)[C@@H]1NC(=O)[C@H](O)CCO

> <INCHI>
InChI=1S/C20H36N2O13/c1-7-12(22-18(31)10(26)4-6-24)14(28)16(19(32)33-7)35-20-15(29)13(27)11(8(2)34-20)21-17(30)9(25)3-5-23/h7-16,19-20,23-29,32H,3-6H2,1-2H3,(H,21,30)(H,22,31)/t7-,8-,9-,10-,11-,12-,13+,14+,15+,16+,19+,20-/m1/s1

> <INCHIKEY>
LRDWEEJXPNQGSD-NYCXTSAZSA-N

> <PUBMED_CITATION>
15213154

$$$$

Marvin  04271009412D          

 47 49  0  0  1  0            999 V2000
    5.1193   -3.9892    0.0000 O   0  0  0  0  0  0  0  0  0  0  0  0
    4.4048   -4.4017    0.0000 C   0  0  1  0  0  0  0  0  0  0  0  0
   10.1205   -5.2273    0.0000 C   0  0  0  0  0  0  0  0  0  0  0  0
    9.4059   -3.9898    0.0000 O   0  0  0  0  0  0  0  0  0  0  0  0
    9.4061   -5.6398    0.0000 C   0  0  1  0  0  0  0  0  0  0  0  0
    9.4061   -6.4648    0.0000 O   0  0  0  0  0  0  0  0  0  0  0  0
    8.6915   -5.2273    0.0000 C   0  0  2  0  0  0  0  0  0  0  0  0
   10.1205   -4.4023    0.0000 C   0  0  2  0  0  0  0  0  0  0  0  0
    8.6915   -4.4023    0.0000 C   0  0  1  0  0  0  0  0  0  0  0  0
    5.8337   -4.4017    0.0000 C   0  0  2  0  0  0  0  0  0  0  0  0
    5.8337   -5.2267    0.0000 C   0  0  0  0  0  0  0  0  0  0  0  0
    5.1193   -5.6393    0.0000 C   0  0  2  0  0  0  0  0  0  0  0  0
    4.4048   -5.2267    0.0000 C   0  0  1  0  0  0  0  0  0  0  0  0
    7.9773   -3.9898    0.0000 C   0  0  1  0  0  0  0  0  0  0  0  0
    7.9773   -5.6398    0.0000 O   0  0  0  0  0  0  0  0  0  0  0  0
    7.2624   -4.4020    0.0000 C   0  0  0  0  0  0  0  0  0  0  0  0
    7.9774   -3.1648    0.0000 O   0  0  0  0  0  0  0  0  0  0  0  0
    5.8337   -3.5768    0.0000 C   0  0  0  0  0  0  0  0  0  0  0  0
    6.5483   -3.9892    0.0000 O   0  0  0  0  0  0  0  0  0  0  0  0
    5.1193   -3.1642    0.0000 O   0  0  0  0  0  0  0  0  0  0  0  0
    6.5483   -3.1643    0.0000 O   0  0  0  0  0  0  0  0  0  0  0  0
   10.8350   -3.9898    0.0000 O   0  0  0  0  0  0  0  0  0  0  0  0
    9.4061   -3.1648    0.0000 O   0  0  0  0  0  0  0  0  0  0  0  0
   10.1205   -3.5773    0.0000 C   0  0  0  0  0  0  0  0  0  0  0  0
   10.8350   -3.1648    0.0000 O   0  0  0  0  0  0  0  0  0  0  0  0
    8.7028   -3.5722    0.0000 H   0  0  0  0  0  0  0  0  0  0  0  0
    3.6904   -3.9892    0.0000 C   0  0  1  0  0  0  0  0  0  0  0  0
    5.1192   -6.4643    0.0000 O   0  0  0  0  0  0  0  0  0  0  0  0
    3.6904   -5.6392    0.0000 O   0  0  0  0  0  0  0  0  0  0  0  0
    4.4048   -3.5767    0.0000 H   0  0  0  0  0  0  0  0  0  0  0  0
    2.2616   -3.9892    0.0000 O   0  0  0  0  0  0  0  0  0  0  0  0
    2.9760   -4.4017    0.0000 C   0  0  0  0  0  0  0  0  0  0  0  0
    3.6904   -3.1642    0.0000 O   0  0  0  0  0  0  0  0  0  0  0  0
   13.6930   -3.9898    0.0000 C   0  0  1  0  0  0  0  0  0  0  0  0
   13.6930   -4.8148    0.0000 C   0  0  1  0  0  0  0  0  0  0  0  0
   12.9784   -3.5773    0.0000 O   0  0  0  0  0  0  0  0  0  0  0  0
   12.9784   -5.2273    0.0000 C   0  0  2  0  0  0  0  0  0  0  0  0
   12.2640   -3.9898    0.0000 C   0  0  1  0  0  0  0  0  0  0  0  0
   12.2640   -4.8148    0.0000 C   0  0  1  0  0  0  0  0  0  0  0  0
   14.4074   -3.5773    0.0000 O   0  0  0  0  0  0  0  0  0  0  0  0
   14.4074   -5.2273    0.0000 N   0  0  0  0  0  0  0  0  0  0  0  0
   12.9784   -6.0523    0.0000 O   0  0  0  0  0  0  0  0  0  0  0  0
   11.5495   -5.2273    0.0000 O   0  0  0  0  0  0  0  0  0  0  0  0
   11.5495   -3.5773    0.0000 C   0  0  0  0  0  0  0  0  0  0  0  0
   14.4074   -6.0523    0.0000 C   0  0  0  0  0  0  0  0  0  0  0  0
   15.1219   -6.4648    0.0000 O   0  0  0  0  0  0  0  0  0  0  0  0
   13.6930   -6.4648    0.0000 C   0  0  0  0  0  0  0  0  0  0  0  0
  2  1  1  0  0  0  0
 27  2  1  0  0  0  0
  2 30  1  6  0  0  0
  5  3  1  0  0  0  0
  5  6  1  1  0  0  0
  7  5  1  0  0  0  0
  7 15  1  1  0  0  0
  8  4  1  0  0  0  0
  8  3  1  0  0  0  0
  8 22  1  6  0  0  0
  8 24  1  0  0  0  0
  9  7  1  0  0  0  0
  9  4  1  0  0  0  0
  9 14  1  0  0  0  0
  9 26  1  6  0  0  0
 10  1  1  0  0  0  0
 10 18  1  0  0  0  0
 10 11  1  0  0  0  0
 12 11  1  0  0  0  0
 12 28  1  1  0  0  0
 13 12  1  0  0  0  0
  2 13  1  0  0  0  0
 13 29  1  1  0  0  0
 14 16  1  0  0  0  0
 14 17  1  1  0  0  0
 16 19  1  0  0  0  0
 18 20  1  0  0  0  0
 18 21  2  0  0  0  0
 24 23  1  0  0  0  0
 24 25  2  0  0  0  0
 27 33  1  1  0  0  0
 27 32  1  0  0  0  0
 32 31  1  0  0  0  0
 10 19  1  6  0  0  0
 34 35  1  0  0  0  0
 34 36  1  0  0  0  0
 35 37  1  0  0  0  0
 36 38  1  0  0  0  0
 37 39  1  0  0  0  0
 38 39  1  0  0  0  0
 34 40  1  1  0  0  0
 35 41  1  6  0  0  0
 37 42  1  1  0  0  0
 39 43  1  6  0  0  0
 38 44  1  1  0  0  0
 22 44  1  0  0  0  0
 46 45  2  0  0  0  0
 47 45  1  0  0  0  0
 41 45  1  0  0  0  0
M  END
> <ID>
CHEBI:59300

> <NAME>
alpha-D-Kdo-(2->8)-alpha-D-Kdo-(2->6)-beta-D-GlcNAc

> <DEFINITION>
A trisaccharide consisting of two 3-deoxy-D-manno-oct-2-ulose residues and a single N-acetylglucosamine residue in a linear sequence, joined via α-linkages.

> <STAR>
3

> <SYNONYM>
Kdoalpha2-8Kdoalpha2-6GlcNAcbeta; alpha-D-Kdop-(2->8)-alpha-D-Kdop-(2->6)-beta-D-GlcpNAc

> <IUPAC_NAME>
3-deoxy-alpha-D-manno-oct-2-ulopyranonosyl-(2->8)-3-deoxy-alpha-D-manno-oct-2-ulopyranonosyl-(2->6)-2-acetamido-2-deoxy-beta-D-glucopyranose

> <FORMULA>
C24H39NO20

> <MASS>
661.56120

> <MONOISOTOPIC_MASS>
661.20654

> <CHARGE>
0

> <SMILES>
[H][C@@]1(O[C@@](C[C@@H](O)[C@H]1O)(OC[C@@H](O)[C@@]1([H])O[C@@](C[C@@H](O)[C@H]1O)(OC[C@H]1O[C@@H](O)[C@H](NC(C)=O)[C@@H](O)[C@@H]1O)C(O)=O)C(O)=O)[C@H](O)CO

> <INCHI>
InChI=1S/C24H39NO20/c1-7(27)25-13-17(35)16(34)12(43-20(13)36)6-42-24(22(39)40)3-9(29)15(33)19(45-24)11(31)5-41-23(21(37)38)2-8(28)14(32)18(44-23)10(30)4-26/h8-20,26,28-36H,2-6H2,1H3,(H,25,27)(H,37,38)(H,39,40)/t8-,9-,10-,11-,12-,13-,14-,15-,16-,17-,18-,19-,20-,23-,24-/m1/s1

> <INCHIKEY>
CIECPUURYJLGLP-BFXSNYIPSA-N

> <PUBMED_CITATION>
11061033

$$$$

Marvin  04271010562D          

 49 51  0  0  1  0            999 V2000
    8.2007   -6.7625    0.0000 O   0  0  0  0  0  0  0  0  0  0  0  0
    7.4862   -7.1750    0.0000 C   0  0  1  0  0  0  0  0  0  0  0  0
    8.9151   -7.1750    0.0000 C   0  0  1  0  0  0  0  0  0  0  0  0
    8.9151   -8.0000    0.0000 C   0  0  0  0  0  0  0  0  0  0  0  0
    8.2007   -8.4125    0.0000 C   0  0  2  0  0  0  0  0  0  0  0  0
    7.4862   -8.0000    0.0000 C   0  0  1  0  0  0  0  0  0  0  0  0
    6.7718   -6.7623    0.0000 C   0  0  1  0  0  0  0  0  0  0  0  0
    8.2006   -9.2375    0.0000 O   0  0  0  0  0  0  0  0  0  0  0  0
    6.7717   -8.4123    0.0000 O   0  0  0  0  0  0  0  0  0  0  0  0
    7.4862   -6.3500    0.0000 H   0  0  0  0  0  0  0  0  0  0  0  0
    5.3429   -6.7625    0.0000 O   0  0  0  0  0  0  0  0  0  0  0  0
    6.0574   -7.1748    0.0000 C   0  0  0  0  0  0  0  0  0  0  0  0
    6.7718   -5.9373    0.0000 O   0  0  0  0  0  0  0  0  0  0  0  0
   10.1205   -5.2273    0.0000 C   0  0  0  0  0  0  0  0  0  0  0  0
    9.4059   -3.9898    0.0000 O   0  0  0  0  0  0  0  0  0  0  0  0
    9.4061   -5.6398    0.0000 C   0  0  1  0  0  0  0  0  0  0  0  0
    9.4061   -6.4648    0.0000 O   0  0  0  0  0  0  0  0  0  0  0  0
    8.6915   -5.2273    0.0000 C   0  0  2  0  0  0  0  0  0  0  0  0
    8.6915   -4.4023    0.0000 C   0  0  1  0  0  0  0  0  0  0  0  0
    7.9773   -3.9898    0.0000 C   0  0  1  0  0  0  0  0  0  0  0  0
    7.9773   -5.6398    0.0000 O   0  0  0  0  0  0  0  0  0  0  0  0
    7.2624   -4.4020    0.0000 C   0  0  0  0  0  0  0  0  0  0  0  0
    7.9774   -3.1648    0.0000 O   0  0  0  0  0  0  0  0  0  0  0  0
    6.5483   -3.9892    0.0000 O   0  0  0  0  0  0  0  0  0  0  0  0
    8.7028   -3.5722    0.0000 H   0  0  0  0  0  0  0  0  0  0  0  0
    9.7026   -7.4207    0.0000 C   0  0  0  0  0  0  0  0  0  0  0  0
   10.3092   -6.8616    0.0000 O   0  0  0  0  0  0  0  0  0  0  0  0
    9.8836   -8.2257    0.0000 O   0  0  0  0  0  0  0  0  0  0  0  0
    6.9952   -9.5351    0.0000 O   0  0  0  0  0  0  0  0  0  0  0  0
    6.2807   -9.9476    0.0000 C   0  0  1  0  0  0  0  0  0  0  0  0
    7.7096   -9.9476    0.0000 C   0  0  1  0  0  0  0  0  0  0  0  0
    7.7096  -10.7726    0.0000 C   0  0  0  0  0  0  0  0  0  0  0  0
    6.9952  -11.1852    0.0000 C   0  0  2  0  0  0  0  0  0  0  0  0
    6.2807  -10.7726    0.0000 C   0  0  1  0  0  0  0  0  0  0  0  0
    5.5663   -9.5350    0.0000 C   0  0  1  0  0  0  0  0  0  0  0  0
    6.9951  -12.0102    0.0000 O   0  0  0  0  0  0  0  0  0  0  0  0
    5.5662  -11.1850    0.0000 O   0  0  0  0  0  0  0  0  0  0  0  0
    6.2807   -9.1226    0.0000 H   0  0  0  0  0  0  0  0  0  0  0  0
    4.1374   -9.5351    0.0000 O   0  0  0  0  0  0  0  0  0  0  0  0
    4.8519   -9.9475    0.0000 C   0  0  0  0  0  0  0  0  0  0  0  0
    5.5663   -8.7100    0.0000 O   0  0  0  0  0  0  0  0  0  0  0  0
    8.4971  -10.1934    0.0000 C   0  0  0  0  0  0  0  0  0  0  0  0
    9.1037   -9.6343    0.0000 O   0  0  0  0  0  0  0  0  0  0  0  0
    8.6781  -10.9984    0.0000 O   0  0  0  0  0  0  0  0  0  0  0  0
   10.1205   -4.4023    0.0000 C   0  0  2  0  0  0  0  0  0  0  0  0
   10.6115   -3.6921    0.0000 O   0  0  0  0  0  0  0  0  0  0  0  0
   10.9080   -4.6480    0.0000 C   0  0  0  0  0  0  0  0  0  0  0  0
   11.5146   -4.0889    0.0000 O   0  0  0  0  0  0  0  0  0  0  0  0
   11.0890   -5.4530    0.0000 O   0  0  0  0  0  0  0  0  0  0  0  0
  2  1  1  0  0  0  0
  7  2  1  0  0  0  0
  2 10  1  6  0  0  0
  3  1  1  0  0  0  0
  3  4  1  0  0  0  0
  5  4  1  0  0  0  0
  5  8  1  1  0  0  0
  6  5  1  0  0  0  0
  2  6  1  0  0  0  0
  6  9  1  1  0  0  0
  7 13  1  1  0  0  0
  7 12  1  0  0  0  0
 12 11  1  0  0  0  0
 16 14  1  0  0  0  0
 16 17  1  1  0  0  0
 18 16  1  0  0  0  0
 18 21  1  1  0  0  0
 45 15  1  0  0  0  0
 45 14  1  0  0  0  0
 19 18  1  0  0  0  0
 19 15  1  0  0  0  0
 19 20  1  0  0  0  0
 19 25  1  6  0  0  0
 20 22  1  0  0  0  0
 20 23  1  1  0  0  0
 22 24  1  0  0  0  0
  3 17  1  6  0  0  0
 27 26  2  0  0  0  0
 28 26  1  0  0  0  0
  3 26  1  0  0  0  0
 30 29  1  0  0  0  0
 35 30  1  0  0  0  0
 30 38  1  6  0  0  0
 31 29  1  0  0  0  0
 31 32  1  0  0  0  0
 33 32  1  0  0  0  0
 33 36  1  1  0  0  0
 34 33  1  0  0  0  0
 30 34  1  0  0  0  0
 34 37  1  1  0  0  0
 35 41  1  1  0  0  0
 35 40  1  0  0  0  0
 40 39  1  0  0  0  0
 31  8  1  6  0  0  0
 43 42  2  0  0  0  0
 44 42  1  0  0  0  0
 31 42  1  0  0  0  0
 45 46  1  6  0  0  0
 48 47  2  0  0  0  0
 49 47  1  0  0  0  0
 45 47  1  0  0  0  0
M  END
> <ID>
CHEBI:59307

> <NAME>
alpha-D-Kdo-(2->4)-alpha-D-Kdo-(2->4)-alpha-D-Kdo

> <DEFINITION>
A trisaccharide consisting of three 3-deoxy-D-manno-oct-2-ulose residues in a linear sequence, joined via α-linkages.

> <STAR>
3

> <SYNONYM>
Kdoalpha2-4Kdoalpha2-4Kdoalpha; (Kdo)3

> <IUPAC_NAME>
3-deoxy-alpha-D-manno-oct-2-ulopyranonosyl-(2->4)-3-deoxy-alpha-D-manno-oct-2-ulopyranonosyl-(2->4)-3-deoxy-alpha-D-manno-oct-2-ulopyranosonic acid

> <FORMULA>
C24H38O22

> <MASS>
678.54530

> <MONOISOTOPIC_MASS>
678.18547

> <CHARGE>
0

> <SMILES>
[H][C@@]1(O[C@](O)(C[C@@H](O[C@@]2(C[C@@H](O[C@@]3(C[C@@H](O)[C@@H](O)[C@]([H])(O3)[C@H](O)CO)C(O)=O)[C@@H](O)[C@]([H])(O2)[C@H](O)CO)C(O)=O)[C@H]1O)C(O)=O)[C@H](O)CO

> <INCHI>
InChI=1S/C24H38O22/c25-4-8(29)16-13(32)7(28)1-23(45-16,20(37)38)43-12-3-24(21(39)40,46-18(15(12)34)10(31)6-27)42-11-2-22(41,19(35)36)44-17(14(11)33)9(30)5-26/h7-18,25-34,41H,1-6H2,(H,35,36)(H,37,38)(H,39,40)/t7-,8-,9-,10-,11-,12-,13-,14-,15-,16-,17-,18-,22-,23-,24-/m1/s1

> <INCHIKEY>
SVTVYHKIIUBKPG-VGCKMWDQSA-N

> <KEGG_GLYCAN_ACCESSION>
G01084

> <PUBMED_CITATION>
11521056; 18272175

$$$$

Marvin  04271013312D          

 34 36  0  0  1  0            999 V2000
   11.5319   -3.4397    0.0000 O   0  0  0  0  0  0  0  0  0  0  0  0
   12.2465   -1.3772    0.0000 C   0  0  1  0  0  0  0  0  0  0  0  0
   12.2465   -2.2022    0.0000 C   0  0  1  0  0  0  0  0  0  0  0  0
   11.5319   -0.9647    0.0000 O   0  0  0  0  0  0  0  0  0  0  0  0
   11.5319   -2.6147    0.0000 C   0  0  2  0  0  0  0  0  0  0  0  0
   10.8175   -1.3772    0.0000 C   0  0  1  0  0  0  0  0  0  0  0  0
   10.8175   -2.2022    0.0000 C   0  0  1  0  0  0  0  0  0  0  0  0
   12.9609   -2.6147    0.0000 N   0  0  0  0  0  0  0  0  0  0  0  0
   10.1031   -2.6147    0.0000 O   0  0  0  0  0  0  0  0  0  0  0  0
   10.1031   -0.9647    0.0000 C   0  0  0  0  0  0  0  0  0  0  0  0
    9.3887   -1.3772    0.0000 O   0  0  0  0  0  0  0  0  0  0  0  0
   13.6754   -2.2022    0.0000 C   0  0  0  0  0  0  0  0  0  0  0  0
   13.6755   -1.3772    0.0000 O   0  0  0  0  0  0  0  0  0  0  0  0
   14.3899   -2.6147    0.0000 C   0  0  0  0  0  0  0  0  0  0  0  0
   12.9610   -0.9647    0.0000 O   0  0  0  0  0  0  0  0  0  0  0  0
   10.8159   -3.8495    0.0000 C   0  0  1  0  0  0  0  0  0  0  0  0
   10.8159   -4.6744    0.0000 C   0  0  0  0  0  0  0  0  0  0  0  0
   10.0998   -5.0841    0.0000 C   0  0  2  0  0  0  0  0  0  0  0  0
   10.0998   -5.9091    0.0000 O   0  0  0  0  0  0  0  0  0  0  0  0
    9.3837   -4.6688    0.0000 C   0  0  1  0  0  0  0  0  0  0  0  0
    8.6676   -5.0785    0.0000 O   0  0  0  0  0  0  0  0  0  0  0  0
    9.3836   -3.8438    0.0000 C   0  0  1  0  0  0  0  0  0  0  0  0
   10.0997   -3.4342    0.0000 O   0  0  0  0  0  0  0  0  0  0  0  0
    8.6799   -3.4357    0.0000 C   0  0  0  0  0  0  0  0  0  0  0  0
    8.6689   -8.3807    0.0000 O   0  0  0  0  0  0  0  0  0  0  0  0
    9.3848   -6.3209    0.0000 C   0  0  1  0  0  0  0  0  0  0  0  0
    9.3848   -7.1460    0.0000 C   0  0  2  0  0  0  0  0  0  0  0  0
   10.1010   -7.5613    0.0000 O   0  0  0  0  0  0  0  0  0  0  0  0
    8.6689   -7.5557    0.0000 C   0  0  1  0  0  0  0  0  0  0  0  0
    7.9528   -7.1404    0.0000 C   0  0  1  0  0  0  0  0  0  0  0  0
    7.2367   -7.5501    0.0000 O   0  0  0  0  0  0  0  0  0  0  0  0
    7.9528   -6.3153    0.0000 C   0  0  1  0  0  0  0  0  0  0  0  0
    8.6688   -5.9056    0.0000 O   0  0  0  0  0  0  0  0  0  0  0  0
    7.2490   -5.9072    0.0000 C   0  0  0  0  0  0  0  0  0  0  0  0
  2  3  1  0  0  0  0
  2  4  1  0  0  0  0
  3  5  1  0  0  0  0
  4  6  1  0  0  0  0
  5  7  1  0  0  0  0
  6  7  1  0  0  0  0
  3  8  1  6  0  0  0
  5  1  1  1  0  0  0
  7  9  1  6  0  0  0
  6 10  1  1  0  0  0
 11 10  1  0  0  0  0
 13 12  2  0  0  0  0
 14 12  1  0  0  0  0
  8 12  1  0  0  0  0
  2 15  1  1  0  0  0
 16  1  1  1  0  0  0
 17 16  1  0  0  0  0
 23 16  1  0  0  0  0
 18 17  1  0  0  0  0
 18 19  1  6  0  0  0
 20 18  1  0  0  0  0
 20 21  1  1  0  0  0
 22 20  1  0  0  0  0
 23 22  1  0  0  0  0
 22 24  1  6  0  0  0
 27 26  1  0  0  0  0
 33 26  1  0  0  0  0
 27 28  1  6  0  0  0
 29 27  1  0  0  0  0
 29 25  1  6  0  0  0
 30 29  1  0  0  0  0
 30 31  1  1  0  0  0
 32 30  1  0  0  0  0
 33 32  1  0  0  0  0
 32 34  1  6  0  0  0
 26 19  1  1  0  0  0
M  END
> <ID>
CHEBI:59312

> <NAME>
alpha-L-Rhap-(1->3)-alpha-L-2-deoxy-Rhap-(1->3)-beta-D-GlcpNAc

> <DEFINITION>
A trisaccharide consisting of rhamnose, 2-deoxyrhamnose and N-acetylglucosamine residues in a linear sequence, joined via α-linkages.

> <STAR>
3

> <SYNONYM>
Rhaalpha(1-3)dRhaalpha(1-3)GlcNAcbeta; alpha-L-Rha-(1->3)-alpha-L-2-deoxy-Rha-(1->3)-beta-D-GlcNAc; 6-deoxy-alpha-L-mannopyranosyl-(1->3)-2,6-dideoxy-alpha-L-arabino-hexopyranosyl-(1->3)-2-acetamido-2-deoxy-beta-D-glucopyranose

> <IUPAC_NAME>
alpha-L-rhamnopyranosyl-(1->3)-2,6-dideoxy-alpha-L-arabino-hexopyranosyl-(1->3)-2-acetamido-2-deoxy-beta-D-glucopyranose

> <FORMULA>
C20H35NO13

> <MASS>
497.49080

> <MONOISOTOPIC_MASS>
497.21084

> <CHARGE>
0

> <SMILES>
C[C@@H]1O[C@H](C[C@H](O[C@@H]2O[C@@H](C)[C@H](O)[C@@H](O)[C@H]2O)[C@H]1O)O[C@H]1[C@H](O)[C@@H](CO)O[C@@H](O)[C@@H]1NC(C)=O

> <INCHI>
InChI=1S/C20H35NO13/c1-6-13(24)9(33-20-17(28)16(27)14(25)7(2)31-20)4-11(30-6)34-18-12(21-8(3)23)19(29)32-10(5-22)15(18)26/h6-7,9-20,22,24-29H,4-5H2,1-3H3,(H,21,23)/t6-,7-,9-,10+,11-,12+,13-,14-,15+,16+,17+,18+,19+,20-/m0/s1

> <INCHIKEY>
WFBOCFNNXZAZMN-JCJKWOMFSA-N

> <PUBMED_CITATION>
12427018

$$$$

Marvin  04271016322D          

 25 25  0  0  1  0            999 V2000
   10.5675   -5.7940    0.0000 C   0  0  2  0  0  0  0  0  0  0  0  0
   10.5696   -6.6238    0.0000 C   0  0  1  0  0  0  0  0  0  0  0  0
   11.2855   -7.0327    0.0000 C   0  0  1  0  0  0  0  0  0  0  0  0
   11.9970   -6.6208    0.0000 C   0  0  2  0  0  0  0  0  0  0  0  0
   11.9970   -5.7947    0.0000 C   0  0  0  0  0  0  0  0  0  0  0  0
   11.2832   -5.3769    0.0000 O   0  0  0  0  0  0  0  0  0  0  0  0
    9.8519   -5.3836    0.0000 C   0  0  0  0  0  0  0  0  0  0  0  0
   12.7162   -5.3831    0.0000 O   0  0  0  0  0  0  0  0  0  0  0  0
   13.4300   -6.6202    0.0000 C   0  0  0  0  0  0  0  0  0  0  0  0
   14.1458   -7.0304    0.0000 C   0  0  0  0  0  0  0  0  0  0  0  0
   13.4293   -5.7916    0.0000 O   0  0  0  0  0  0  0  0  0  0  0  0
    9.8536   -7.0373    0.0000 O   0  0  0  0  0  0  0  0  0  0  0  0
   11.2860   -7.8563    0.0000 O   0  0  0  0  0  0  0  0  0  0  0  0
   12.7136   -7.0350    0.0000 N   0  0  0  0  0  0  0  0  0  0  0  0
    9.1381   -5.7973    0.0000 O   0  0  0  0  0  0  0  0  0  0  0  0
    8.4236   -5.3848    0.0000 P   0  0  0  0  0  0  0  0  0  0  0  0
    7.7092   -5.7973    0.0000 O   0  0  0  0  0  0  0  0  0  0  0  0
    6.9947   -5.3848    0.0000 C   0  0  0  0  0  0  0  0  0  0  0  0
    6.2802   -5.7973    0.0000 C   0  0  0  0  0  0  0  0  0  0  0  0
    5.5658   -5.3848    0.0000 N   0  3  0  0  0  0  0  0  0  0  0  0
    4.8514   -5.7973    0.0000 C   0  0  0  0  0  0  0  0  0  0  0  0
    5.5658   -4.5598    0.0000 C   0  0  0  0  0  0  0  0  0  0  0  0
    4.8514   -4.9723    0.0000 C   0  0  0  0  0  0  0  0  0  0  0  0
    8.4236   -4.5598    0.0000 O   0  0  0  0  0  0  0  0  0  0  0  0
    8.2101   -6.1817    0.0000 O   0  0  0  0  0  0  0  0  0  0  0  0
  1  7  1  1  0  0  0
  5  8  1  0  0  0  0
  9 10  1  0  0  0  0
  9 11  2  0  0  0  0
  1  2  1  0  0  0  0
  1  6  1  0  0  0  0
  2  3  1  0  0  0  0
  3  4  1  0  0  0  0
  4  5  1  0  0  0  0
  5  6  1  0  0  0  0
  2 12  1  1  0  0  0
  3 13  1  1  0  0  0
  4 14  1  6  0  0  0
 14  9  1  0  0  0  0
  7 15  1  0  0  0  0
 15 16  1  0  0  0  0
 16 17  1  0  0  0  0
 17 18  1  0  0  0  0
 18 19  1  0  0  0  0
 19 20  1  0  0  0  0
 20 21  1  0  0  0  0
 20 22  1  0  0  0  0
 20 23  1  0  0  0  0
 16 24  2  0  0  0  0
 16 25  1  0  0  0  0
M  CHG  1  20   1
M  END
> <ID>
CHEBI:59317

> <NAME>
N-acetyl-D-galactosamine-6-phosphocholine

> <DEFINITION>
A galactose phosphate consisting of N-acetyl-D-galactosamine having a choline phosphate group at the 6-position.

> <STAR>
3

> <SYNONYM>
GalNAc-ChoP

> <IUPAC_NAME>
2-acetamido-2-deoxy-6-O-{hydroxy[2-(trimethylazaniumyl)ethoxy]phosphoryl}-D-galactopyranose

> <FORMULA>
C13H28N2O9P

> <MASS>
387.34320

> <MONOISOTOPIC_MASS>
387.15269

> <CHARGE>
1

> <SMILES>
CC(=O)N[C@H]1C(O)O[C@H](COP(O)(=O)OCC[N+](C)(C)C)[C@H](O)[C@@H]1O

> <INCHI>
InChI=1S/C13H27N2O9P/c1-8(16)14-10-12(18)11(17)9(24-13(10)19)7-23-25(20,21)22-6-5-15(2,3)4/h9-13,17-19H,5-7H2,1-4H3,(H-,14,16,20,21)/p+1/t9-,10-,11+,12-,13?/m1/s1

> <INCHIKEY>
VGSHXNQBJVLXRV-HENWMNBSSA-O

> <PUBMED_CITATION>
15267227

$$$$

Marvin  04281009492D          

 32 34  0  0  1  0            999 V2000
    7.5723   -3.5187    0.0000 C   0  0  2  0  0  0  0  0  0  0  0  0
    7.5723   -4.3437    0.0000 C   0  0  2  0  0  0  0  0  0  0  0  0
    6.8578   -3.1062    0.0000 O   0  0  0  0  0  0  0  0  0  0  0  0
    6.8578   -4.7562    0.0000 C   0  0  2  0  0  0  0  0  0  0  0  0
    6.1433   -3.5187    0.0000 C   0  0  1  0  0  0  0  0  0  0  0  0
    6.1433   -4.3437    0.0000 C   0  0  1  0  0  0  0  0  0  0  0  0
    8.2868   -3.1062    0.0000 O   0  0  0  0  0  0  0  0  0  0  0  0
    8.2868   -4.7562    0.0000 O   0  0  0  0  0  0  0  0  0  0  0  0
    6.8578   -5.5812    0.0000 O   0  0  0  0  0  0  0  0  0  0  0  0
    5.4289   -4.7562    0.0000 O   0  0  0  0  0  0  0  0  0  0  0  0
    5.4289   -3.1062    0.0000 C   0  0  0  0  0  0  0  0  0  0  0  0
    4.7144   -3.5187    0.0000 O   0  0  0  0  0  0  0  0  0  0  0  0
    6.1433   -5.9937    0.0000 C   0  0  2  0  0  0  0  0  0  0  0  0
    6.1433   -6.8187    0.0000 C   0  0  1  0  0  0  0  0  0  0  0  0
    5.4288   -5.5812    0.0000 O   0  0  0  0  0  0  0  0  0  0  0  0
    5.4288   -7.2312    0.0000 C   0  0  0  0  0  0  0  0  0  0  0  0
    4.7143   -5.9937    0.0000 C   0  0  1  0  0  0  0  0  0  0  0  0
    4.7143   -6.8187    0.0000 C   0  0  2  0  0  0  0  0  0  0  0  0
    6.8578   -7.2312    0.0000 O   0  0  0  0  0  0  0  0  0  0  0  0
    3.9999   -7.2312    0.0000 O   0  0  0  0  0  0  0  0  0  0  0  0
    3.9999   -5.5812    0.0000 C   0  0  0  0  0  0  0  0  0  0  0  0
    9.0012   -5.1687    0.0000 C   0  0  2  0  0  0  0  0  0  0  0  0
    9.7157   -4.7562    0.0000 C   0  0  1  0  0  0  0  0  0  0  0  0
    9.0012   -5.9937    0.0000 O   0  0  0  0  0  0  0  0  0  0  0  0
   10.4302   -5.1688    0.0000 C   0  0  2  0  0  0  0  0  0  0  0  0
    9.7157   -6.4062    0.0000 C   0  0  1  0  0  0  0  0  0  0  0  0
   10.4302   -5.9938    0.0000 C   0  0  2  0  0  0  0  0  0  0  0  0
    9.7158   -3.9312    0.0000 O   0  0  0  0  0  0  0  0  0  0  0  0
   11.1447   -4.7563    0.0000 O   0  0  0  0  0  0  0  0  0  0  0  0
   11.1446   -6.4063    0.0000 O   0  0  0  0  0  0  0  0  0  0  0  0
    9.7157   -7.2312    0.0000 C   0  0  0  0  0  0  0  0  0  0  0  0
   10.4302   -7.6438    0.0000 O   0  0  0  0  0  0  0  0  0  0  0  0
  1  2  1  0  0  0  0
  1  3  1  0  0  0  0
  2  4  1  0  0  0  0
  3  5  1  0  0  0  0
  4  6  1  0  0  0  0
  5  6  1  0  0  0  0
  1  7  1  6  0  0  0
  2  8  1  1  0  0  0
  4  9  1  1  0  0  0
  6 10  1  6  0  0  0
  5 11  1  1  0  0  0
 12 11  1  0  0  0  0
 13 14  1  0  0  0  0
 13 15  1  0  0  0  0
 14 16  1  0  0  0  0
 15 17  1  0  0  0  0
 16 18  1  0  0  0  0
 17 18  1  0  0  0  0
 13  9  1  6  0  0  0
 14 19  1  6  0  0  0
 18 20  1  1  0  0  0
 17 21  1  1  0  0  0
 22 23  1  0  0  0  0
 22 24  1  0  0  0  0
 23 25  1  0  0  0  0
 24 26  1  0  0  0  0
 25 27  1  0  0  0  0
 26 27  1  0  0  0  0
 22  8  1  6  0  0  0
 23 28  1  6  0  0  0
 25 29  1  1  0  0  0
 27 30  1  1  0  0  0
 26 31  1  1  0  0  0
 32 31  1  0  0  0  0
M  END
> <ID>
CHEBI:59319

> <NAME>
alpha-D-Galp-(1->2)-[alpha-D-Abep-(1->3)]-alpha-D-Manp

> <DEFINITION>
A branched trisaccharide consisting of D-abequose, D-galactose and D-mannose residues joined via α-linkages with mannose at the reducing end.

> <STAR>
3

> <SYNONYM>
alpha-D-Gal(1->2)-[alpha-D-Abe-(1->3)]-alpha-D-Man; alpha-D-abequosyl-(1->3)-[alpha-D-galactosyl-(1->2)]-alpha-D-mannose; alpha-D-abequosyl-(1-3)-[alpha-D-galactosyl-(1-2)]-alpha-D-mannose; alpha-D-abequopyranosyl-(1->3)-[alpha-D-galactopyranosyl-(1->2)]-alpha-D-mannopyranose

> <IUPAC_NAME>
3,6-dideoxy-alpha-D-xylo-hexopyranosyl-(1->3)-[alpha-D-galactopyranosyl-(1->2)]-alpha-D-mannopyranose

> <FORMULA>
C18H32O14

> <MASS>
472.43830

> <MONOISOTOPIC_MASS>
472.17921

> <CHARGE>
0

> <SMILES>
C[C@H]1O[C@H](O[C@H]2[C@H](O)[C@@H](CO)O[C@H](O)[C@H]2O[C@H]2O[C@H](CO)[C@H](O)[C@H](O)[C@H]2O)[C@H](O)C[C@H]1O

> <INCHI>
InChI=1S/C18H32O14/c1-5-6(21)2-7(22)17(28-5)31-14-11(24)9(4-20)29-16(27)15(14)32-18-13(26)12(25)10(23)8(3-19)30-18/h5-27H,2-4H2,1H3/t5-,6-,7-,8-,9-,10+,11-,12+,13-,14+,15+,16+,17-,18-/m1/s1

> <INCHIKEY>
LSAKLQNQHXTPFN-HLJUHOIZSA-N

> <PUBMED_CITATION>
7513555

$$$$

Marvin  04291014082D          

 29 30  0  0  1  0            999 V2000
   41.4042   -4.9773    0.0000 O   0  0  0  0  0  0  0  0  0  0  0  0
   40.6897   -5.3898    0.0000 C   0  0  1  0  0  0  0  0  0  0  0  0
   40.6897   -6.2149    0.0000 C   0  0  1  0  0  0  0  0  0  0  0  0
   41.4042   -6.6274    0.0000 C   0  0  1  0  0  0  0  0  0  0  0  0
   42.1186   -6.2149    0.0000 C   0  0  2  0  0  0  0  0  0  0  0  0
   42.1186   -5.3898    0.0000 C   0  0  0  0  0  0  0  0  0  0  0  0
   42.8331   -4.9773    0.0000 O   0  0  0  0  0  0  0  0  0  0  0  0
   42.8331   -6.6274    0.0000 O   0  0  0  0  0  0  0  0  0  0  0  0
   41.4042   -7.4524    0.0000 O   0  0  0  0  0  0  0  0  0  0  0  0
   39.9752   -6.6274    0.0000 O   0  0  0  0  0  0  0  0  0  0  0  0
   39.9752   -4.9773    0.0000 C   0  0  0  0  0  0  0  0  0  0  0  0
   40.6897   -7.8649    0.0000 C   0  0  0  0  0  0  0  0  0  0  0  0
   39.9752   -7.4524    0.0000 O   0  0  0  0  0  0  0  0  0  0  0  0
   39.2608   -7.8649    0.0000 C   0  0  2  0  0  0  0  0  0  0  0  0
   39.2608   -8.6899    0.0000 C   0  0  1  0  0  0  0  0  0  0  0  0
   39.9752   -9.1024    0.0000 C   0  0  1  0  0  0  0  0  0  0  0  0
   40.6897   -8.6899    0.0000 C   0  0  1  0  0  0  0  0  0  0  0  0
   41.4042   -9.1024    0.0000 O   0  0  0  0  0  0  0  0  0  0  0  0
   42.1186   -8.6899    0.0000 C   0  0  0  0  0  0  0  0  0  0  0  0
   39.5627   -9.8169    0.0000 C   0  0  0  0  0  0  0  0  0  0  0  0
   40.3877   -9.8169    0.0000 O   0  0  0  0  0  0  0  0  0  0  0  0
   38.5463   -9.1024    0.0000 N   0  0  0  0  0  0  0  0  0  0  0  0
   37.8318   -8.6899    0.0000 C   0  0  0  0  0  0  0  0  0  0  0  0
   37.1173   -9.1024    0.0000 C   0  0  0  0  0  0  0  0  0  0  0  0
   36.4029   -8.6899    0.0000 C   0  0  0  0  0  0  0  0  0  0  0  0
   37.8318   -7.8649    0.0000 O   0  0  0  0  0  0  0  0  0  0  0  0
   37.1173   -9.9274    0.0000 O   0  0  0  0  0  0  0  0  0  0  0  0
   37.8318  -10.3399    0.0000 C   0  0  0  0  0  0  0  0  0  0  0  0
   38.5463   -7.4524    0.0000 C   0  0  0  0  0  0  0  0  0  0  0  0
  1  2  1  0  0  0  0
  2  3  1  0  0  0  0
  3  4  1  0  0  0  0
  4  5  1  0  0  0  0
  5  6  1  0  0  0  0
  1  6  1  0  0  0  0
  6  7  1  0  0  0  0
  5  8  1  6  0  0  0
  4  9  1  1  0  0  0
  3 10  1  1  0  0  0
  2 11  1  1  0  0  0
  9 12  1  0  0  0  0
 17 12  1  0  0  0  0
 13 12  1  0  0  0  0
 13 14  1  0  0  0  0
 14 15  1  0  0  0  0
 15 16  1  0  0  0  0
 16 17  1  0  0  0  0
 17 18  1  6  0  0  0
 18 19  1  0  0  0  0
 16 20  1  1  0  0  0
 16 21  1  6  0  0  0
 15 22  1  1  0  0  0
 22 23  1  0  0  0  0
 23 24  1  0  0  0  0
 24 25  1  0  0  0  0
 23 26  2  0  0  0  0
 24 27  1  0  0  0  0
 27 28  1  0  0  0  0
 14 29  1  6  0  0  0
M  END
> <ID>
CHEBI:59327

> <NAME>
4,6-dideoxy-4-(2-methoxypropionamido)-3-C,2-O-dimethyl-L-mannopyranosyl-(1->3)-L-fucopyranose

> <DEFINITION>
An amino disaccharide consisting of N-(2-methoxypropionyl)kansosamine linked via a glycosidic bond (of unspecified configuration) to O-3 of L-fucose.

> <STAR>
3

> <SYNONYM>
N-(2-methoxypropionyl)kansosaminyl-(1->3)-L-fucopyranose; KanNAcyl(1->3)-L-Fucp; 6-deoxy-3-O-[4,6-dideoxy-4-(2-methoxypropanamido)-3-C-methyl-2-O-methyl-L-mannopyranosyl]-D-galactopyranose

> <IUPAC_NAME>
4,6-dideoxy-4-(2-methoxypropanamido)-3-C-methyl-2-O-methyl-L-mannopyranosyl-(1->3)-6-deoxy-D-galactopyranose

> <FORMULA>
C18H33NO10

> <MASS>
423.45530

> <MONOISOTOPIC_MASS>
423.21045

> <CHARGE>
0

> <SMILES>
COC(C)C(=O)N[C@H]1[C@H](C)OC(O[C@H]2[C@@H](O)[C@@H](C)OC(O)[C@@H]2O)[C@H](OC)[C@]1(C)O

> <INCHI>
InChI=1S/C18H33NO10/c1-7-10(20)12(11(21)16(23)27-7)29-17-14(26-6)18(4,24)13(8(2)28-17)19-15(22)9(3)25-5/h7-14,16-17,20-21,23-24H,1-6H3,(H,19,22)/t7-,8+,9?,10+,11-,12+,13+,14+,16?,17?,18-/m1/s1

> <INCHIKEY>
WXRMULXJDGUOQT-OTBWFBDLSA-N

> <PUBMED_CITATION>
2411286

$$$$

Marvin  05111009342D          

 34 35  0  0  1  0            999 V2000
   16.7510   -3.1057    0.0000 O   0  0  0  0  0  0  0  0  0  0  0  0
   16.0365   -3.5182    0.0000 C   0  0  1  0  0  0  0  0  0  0  0  0
   18.8945   -4.3432    0.0000 C   0  0  0  0  0  0  0  0  0  0  0  0
   20.3233   -4.3432    0.0000 O   0  0  0  0  0  0  0  0  0  0  0  0
   18.8945   -3.5182    0.0000 C   0  0  1  0  0  0  0  0  0  0  0  0
   18.1799   -3.1057    0.0000 O   0  0  0  0  0  0  0  0  0  0  0  0
   19.6089   -3.1057    0.0000 C   0  0  2  0  0  0  0  0  0  0  0  0
   19.6089   -4.7557    0.0000 C   0  0  2  0  0  0  0  0  0  0  0  0
   20.3233   -3.5182    0.0000 C   0  0  1  0  0  0  0  0  0  0  0  0
   17.4654   -3.5182    0.0000 C   0  0  2  0  0  0  0  0  0  0  0  0
   17.4654   -4.3432    0.0000 C   0  0  2  0  0  0  0  0  0  0  0  0
   16.7510   -4.7557    0.0000 C   0  0  2  0  0  0  0  0  0  0  0  0
   16.0365   -4.3432    0.0000 C   0  0  1  0  0  0  0  0  0  0  0  0
   21.0379   -3.1059    0.0000 C   0  0  1  0  0  0  0  0  0  0  0  0
   19.6089   -2.2808    0.0000 O   0  0  0  0  0  0  0  0  0  0  0  0
   21.7523   -3.5184    0.0000 C   0  0  0  0  0  0  0  0  0  0  0  0
   21.0379   -2.2809    0.0000 O   0  0  0  0  0  0  0  0  0  0  0  0
   17.4654   -2.6933    0.0000 C   0  0  0  0  0  0  0  0  0  0  0  0
   22.4668   -3.1060    0.0000 O   0  0  0  0  0  0  0  0  0  0  0  0
   16.7510   -2.2807    0.0000 O   0  0  0  0  0  0  0  0  0  0  0  0
   18.1799   -2.2808    0.0000 O   0  0  0  0  0  0  0  0  0  0  0  0
   19.6088   -5.5808    0.0000 O   0  0  0  0  0  0  0  0  0  0  0  0
   21.0378   -4.7560    0.0000 O   0  0  0  0  0  0  0  0  0  0  0  0
   20.3233   -5.1685    0.0000 C   0  0  0  0  0  0  0  0  0  0  0  0
   20.3232   -5.9935    0.0000 O   0  0  0  0  0  0  0  0  0  0  0  0
   20.3233   -2.6934    0.0000 H   0  0  0  0  0  0  0  0  0  0  0  0
   15.3221   -3.1056    0.0000 C   0  0  1  0  0  0  0  0  0  0  0  0
   16.7509   -5.5807    0.0000 O   0  0  0  0  0  0  0  0  0  0  0  0
   15.3220   -4.7556    0.0000 O   0  0  0  0  0  0  0  0  0  0  0  0
   16.0365   -2.6932    0.0000 H   0  0  0  0  0  0  0  0  0  0  0  0
   13.8932   -3.1057    0.0000 O   0  0  0  0  0  0  0  0  0  0  0  0
   14.6077   -3.5181    0.0000 C   0  0  0  0  0  0  0  0  0  0  0  0
   15.3221   -2.2806    0.0000 O   0  0  0  0  0  0  0  0  0  0  0  0
   18.1799   -4.7557    0.0000 O   0  0  0  0  0  0  0  0  0  0  0  0
  2  1  1  0  0  0  0
 27  2  1  0  0  0  0
  2 30  1  6  0  0  0
  5  3  1  0  0  0  0
  5  6  1  1  0  0  0
  7  5  1  0  0  0  0
  7 15  1  1  0  0  0
  8  4  1  0  0  0  0
  8  3  1  0  0  0  0
  8 22  1  6  0  0  0
  8 24  1  0  0  0  0
  9  7  1  0  0  0  0
  9  4  1  0  0  0  0
  9 14  1  0  0  0  0
  9 26  1  6  0  0  0
 10  1  1  0  0  0  0
 10  6  1  6  0  0  0
 10 18  1  0  0  0  0
 10 11  1  0  0  0  0
 12 11  1  0  0  0  0
 12 28  1  1  0  0  0
 13 12  1  0  0  0  0
  2 13  1  0  0  0  0
 13 29  1  1  0  0  0
 14 16  1  0  0  0  0
 14 17  1  6  0  0  0
 16 19  1  0  0  0  0
 18 20  1  0  0  0  0
 18 21  2  0  0  0  0
 24 23  1  0  0  0  0
 24 25  2  0  0  0  0
 27 33  1  1  0  0  0
 27 32  1  0  0  0  0
 32 31  1  0  0  0  0
 11 34  1  1  0  0  0
M  END
> <ID>
CHEBI:59344

> <NAME>
alpha-D-Ko-(2->4)-alpha-D-Kdo

> <DEFINITION>
A disaccharide comprising a D-glycero-α-D-talo-oct-2-ulosonyl unit in (2→4) linkage with 3-deoxy-α-D-manno-oct-2-ulopyranonosonic acid; it forms part of the core structure of bacterial lipopolysaccharides.

> <STAR>
3

> <SYNONYM>
Ko-(2->4)-Kdo; Ko(2-4)Kdo; alpha-Ko-(2->4)-alpha-Kdo; 3-deoxy-4-O-D-glycero-alpha-D-talo-oct-2-ulopyranonosyl-alpha-D-manno-oct-2-ulopyranosonic acid

> <IUPAC_NAME>
D-glycero-alpha-D-talo-oct-2-ulopyranonosyl-(2->4)-3-deoxy-alpha-D-manno-oct-2-ulosonic acid

> <FORMULA>
C16H26O16

> <MASS>
474.36800

> <MONOISOTOPIC_MASS>
474.12208

> <CHARGE>
0

> <SMILES>
[H][C@@]1(O[C@](O)(C[C@@H](O[C@]2(O[C@]([H])([C@H](O)CO)[C@H](O)[C@H](O)[C@@H]2O)C(O)=O)[C@H]1O)C(O)=O)[C@H](O)CO

> <INCHI>
InChI=1S/C16H26O16/c17-2-4(19)10-7(21)6(1-15(29,31-10)13(25)26)30-16(14(27)28)12(24)9(23)8(22)11(32-16)5(20)3-18/h4-12,17-24,29H,1-3H2,(H,25,26)(H,27,28)/t4-,5-,6-,7-,8-,9+,10-,11-,12+,15-,16-/m1/s1

> <INCHIKEY>
OZSDTCNDYACQHT-BDRJEAPRSA-N

> <PUBMED_CITATION>
12537694; 18272175

$$$$

Marvin  05111010122D          

 18 18  0  0  0  0            999 V2000
    0.8874   -0.6909    0.0000 C   0  0  1  0  0  0  0  0  0  0  0  0
    0.1729   -1.1034    0.0000 C   0  0  1  0  0  0  0  0  0  0  0  0
    0.1729   -1.9284    0.0000 O   0  0  0  0  0  0  0  0  0  0  0  0
   -0.5416   -0.6909    0.0000 C   0  0  1  0  0  0  0  0  0  0  0  0
   -1.2561   -1.1034    0.0000 O   0  0  0  0  0  0  0  0  0  0  0  0
    0.1729    0.5466    0.0000 O   0  0  0  0  0  0  0  0  0  0  0  0
   -1.2561    0.5466    0.0000 C   0  0  2  0  0  0  0  0  0  0  0  0
   -1.2561    1.3716    0.0000 O   0  0  0  0  0  0  0  0  0  0  0  0
   -1.9705    0.1341    0.0000 C   0  0  0  0  0  0  0  0  0  0  0  0
   -2.6850    0.5466    0.0000 O   0  0  0  0  0  0  0  0  0  0  0  0
   -0.5416    0.1341    0.0000 C   0  0  2  0  0  0  0  0  0  0  0  0
   -0.5416    0.9591    0.0000 H   0  0  0  0  0  0  0  0  0  0  0  0
    1.6018    1.3716    0.0000 O   0  0  0  0  0  0  0  0  0  0  0  0
    1.6018    0.5466    0.0000 C   0  0  0  0  0  0  0  0  0  0  0  0
    2.3163    0.1341    0.0000 O   0  0  0  0  0  0  0  0  0  0  0  0
    0.8874    0.1341    0.0000 C   0  0  1  0  0  0  0  0  0  0  0  0
    0.8874    0.9591    0.0000 O   0  0  0  0  0  0  0  0  0  0  0  0
    1.6019   -1.1034    0.0000 O   0  0  0  0  0  0  0  0  0  0  0  0
 16  1  1  0  0  0  0
 16  6  1  0  0  0  0
  1  2  1  0  0  0  0
  2  3  1  1  0  0  0
  2  4  1  0  0  0  0
  4  5  1  1  0  0  0
  4 11  1  0  0  0  0
 11  6  1  0  0  0  0
 11  7  1  0  0  0  0
  7  8  1  1  0  0  0
  7  9  1  0  0  0  0
  9 10  1  0  0  0  0
 11 12  1  6  0  0  0
 16 14  1  0  0  0  0
 14 13  2  0  0  0  0
 14 15  1  0  0  0  0
 16 17  1  6  0  0  0
  1 18  1  1  0  0  0
M  END
> <ID>
CHEBI:59348

> <NAME>
alpha-D-Ko

> <DEFINITION>
An octose sugar sometimes found in Gram-negative bacteria as a lipopolysaccharide constituent, in combination with its 3-deoxy derivative (α-D-Kdo).

> <STAR>
3

> <SYNONYM>
Ko; alpha-ketooctonic acid

> <IUPAC_NAME>
D-glycero-alpha-D-talo-oct-2-ulopyranosonic acid

> <FORMULA>
C8H14O9

> <MASS>
254.19140

> <MONOISOTOPIC_MASS>
254.06378

> <CHARGE>
0

> <SMILES>
[H][C@@]1(O[C@](O)([C@@H](O)[C@@H](O)[C@H]1O)C(O)=O)[C@H](O)CO

> <INCHI>
InChI=1S/C8H14O9/c9-1-2(10)5-3(11)4(12)6(13)8(16,17-5)7(14)15/h2-6,9-13,16H,1H2,(H,14,15)/t2-,3-,4+,5-,6+,8-/m1/s1

> <INCHIKEY>
GQQWVQCNFJXTNV-CXERMUKYSA-N

> <PUBMED_CITATION>
12537694; 19767317

$$$$

Marvin  05051016262D          

 25 26  0  0  1  0            999 V2000
    5.8230  -10.5561    0.0000 C   0  0  1  0  0  0  0  0  0  0  0  0
    5.8230  -11.3811    0.0000 C   0  0  1  0  0  0  0  0  0  0  0  0
    5.1085  -10.1436    0.0000 O   0  0  0  0  0  0  0  0  0  0  0  0
    5.1085  -11.7936    0.0000 C   0  0  1  0  0  0  0  0  0  0  0  0
    4.3940  -10.5561    0.0000 C   0  0  2  0  0  0  0  0  0  0  0  0
    4.3940  -11.3811    0.0000 C   0  0  2  0  0  0  0  0  0  0  0  0
    6.5375  -10.1436    0.0000 O   0  0  0  0  0  0  0  0  0  0  0  0
    6.5375  -11.7936    0.0000 O   0  0  0  0  0  0  0  0  0  0  0  0
    5.1084  -12.6186    0.0000 O   0  0  0  0  0  0  0  0  0  0  0  0
    3.6795  -11.7936    0.0000 O   0  0  0  0  0  0  0  0  0  0  0  0
    3.6795  -10.1436    0.0000 C   0  0  0  0  0  0  0  0  0  0  0  0
    7.2520   -8.0811    0.0000 C   0  0  1  0  0  0  0  0  0  0  0  0
    7.2520   -8.9061    0.0000 C   0  0  1  0  0  0  0  0  0  0  0  0
    6.5375   -7.6686    0.0000 O   0  0  0  0  0  0  0  0  0  0  0  0
    6.5375   -9.3186    0.0000 C   0  0  2  0  0  0  0  0  0  0  0  0
    5.8230   -8.0811    0.0000 C   0  0  1  0  0  0  0  0  0  0  0  0
    5.8230   -8.9061    0.0000 C   0  0  1  0  0  0  0  0  0  0  0  0
    7.9665   -7.6686    0.0000 O   0  0  0  0  0  0  0  0  0  0  0  0
    7.9665   -9.3186    0.0000 N   0  0  0  0  0  0  0  0  0  0  0  0
    5.1085   -9.3186    0.0000 O   0  0  0  0  0  0  0  0  0  0  0  0
    5.1085   -7.6686    0.0000 C   0  0  0  0  0  0  0  0  0  0  0  0
    4.3941   -8.0811    0.0000 O   0  0  0  0  0  0  0  0  0  0  0  0
    8.6809   -8.9061    0.0000 C   0  0  0  0  0  0  0  0  0  0  0  0
    8.6809   -8.0811    0.0000 O   0  0  0  0  0  0  0  0  0  0  0  0
    9.3954   -9.3186    0.0000 C   0  0  0  0  0  0  0  0  0  0  0  0
  1  2  1  0  0  0  0
  1  3  1  0  0  0  0
  2  4  1  0  0  0  0
  3  5  1  0  0  0  0
  4  6  1  0  0  0  0
  5  6  1  0  0  0  0
  1  7  1  1  0  0  0
  2  8  1  6  0  0  0
  4  9  1  6  0  0  0
  6 10  1  1  0  0  0
  5 11  1  6  0  0  0
 12 13  1  0  0  0  0
 12 14  1  0  0  0  0
 13 15  1  0  0  0  0
 14 16  1  0  0  0  0
 15 17  1  0  0  0  0
 16 17  1  0  0  0  0
 12 18  1  1  0  0  0
 13 19  1  6  0  0  0
 15  7  1  1  0  0  0
 17 20  1  6  0  0  0
 16 21  1  1  0  0  0
 22 21  1  0  0  0  0
 24 23  2  0  0  0  0
 19 23  1  0  0  0  0
 25 23  1  0  0  0  0
M  END
> <ID>
CHEBI:59355

> <NAME>
alpha-L-Rhap-(1->3)-beta-D-GlcpNAc

> <DEFINITION>
An amino disaccharide consisting of N-acetyl-β-D-glucosamine having an α-L-rhamnosyl residue attached at the 3-position.

> <STAR>
3

> <SYNONYM>
Rhaalpha1-3GlcNAcbeta; alpha-L-Rha-(1->3)-beta-D-GlcNAc; 6-deoxy-alpha-L-rhamnosyl-(1->3)-N-acetyl-beta-D-glucosamine; 2-acetamido-2-deoxy-3-O-(6-deoxy-alpha-L-mannopyranosyl)-beta-D-glucopyranose

> <IUPAC_NAME>
6-deoxy-alpha-L-rhamnopyranosyl-(1->3)-2-acetamido-2-deoxy-beta-D-glycopyranose

> <FORMULA>
C14H25NO10

> <MASS>
367.34900

> <MONOISOTOPIC_MASS>
367.14785

> <CHARGE>
0

> <SMILES>
C[C@@H]1O[C@@H](O[C@H]2[C@H](O)[C@@H](CO)O[C@@H](O)[C@@H]2NC(C)=O)[C@H](O)[C@H](O)[C@H]1O

> <INCHI>
InChI=1S/C14H25NO10/c1-4-8(18)10(20)11(21)14(23-4)25-12-7(15-5(2)17)13(22)24-6(3-16)9(12)19/h4,6-14,16,18-22H,3H2,1-2H3,(H,15,17)/t4-,6+,7+,8-,9+,10+,11+,12+,13+,14-/m0/s1

> <INCHIKEY>
TUXVLTYUDHJDAL-PNAWNUGTSA-N

> <PUBMED_CITATION>
15979596

$$$$

Marvin  05051017022D          

 29 30  0  0  1  0            999 V2000
    7.1811  -11.4059    0.0000 C   0  0  1  0  0  0  0  0  0  0  0  0
    7.1811  -12.2309    0.0000 C   0  0  1  0  0  0  0  0  0  0  0  0
    6.4666  -10.9934    0.0000 O   0  0  0  0  0  0  0  0  0  0  0  0
    6.4666  -12.6434    0.0000 C   0  0  2  0  0  0  0  0  0  0  0  0
    5.7522  -11.4059    0.0000 C   0  0  1  0  0  0  0  0  0  0  0  0
    5.7522  -12.2309    0.0000 C   0  0  2  0  0  0  0  0  0  0  0  0
    7.8956  -10.9933    0.0000 O   0  0  0  0  0  0  0  0  0  0  0  0
    7.8956  -12.6434    0.0000 N   0  0  0  0  0  0  0  0  0  0  0  0
    6.4666  -13.4684    0.0000 O   0  0  0  0  0  0  0  0  0  0  0  0
    5.0376  -12.6433    0.0000 O   0  0  0  0  0  0  0  0  0  0  0  0
    5.0376  -10.9934    0.0000 C   0  0  0  0  0  0  0  0  0  0  0  0
    4.3232  -11.4059    0.0000 O   0  0  0  0  0  0  0  0  0  0  0  0
    8.6100  -12.2309    0.0000 C   0  0  0  0  0  0  0  0  0  0  0  0
    8.6100  -11.4058    0.0000 O   0  0  0  0  0  0  0  0  0  0  0  0
    9.3245  -12.6434    0.0000 C   0  0  0  0  0  0  0  0  0  0  0  0
   10.0390   -9.7558    0.0000 C   0  0  2  0  0  0  0  0  0  0  0  0
   10.0390  -10.5808    0.0000 C   0  0  1  0  0  0  0  0  0  0  0  0
    9.3245   -9.3433    0.0000 O   0  0  0  0  0  0  0  0  0  0  0  0
    9.3245  -10.9933    0.0000 C   0  0  2  0  0  0  0  0  0  0  0  0
    8.6100   -9.7558    0.0000 C   0  0  1  0  0  0  0  0  0  0  0  0
    8.6100  -10.5808    0.0000 C   0  0  2  0  0  0  0  0  0  0  0  0
   10.7535   -9.3433    0.0000 O   0  0  0  0  0  0  0  0  0  0  0  0
   10.7535  -10.9934    0.0000 N   0  0  0  0  0  0  0  0  0  0  0  0
    9.3245  -11.8183    0.0000 O   0  0  0  0  0  0  0  0  0  0  0  0
    7.8956   -9.3434    0.0000 C   0  0  0  0  0  0  0  0  0  0  0  0
    7.1811   -9.7559    0.0000 O   0  0  0  0  0  0  0  0  0  0  0  0
   11.4679  -10.5808    0.0000 C   0  0  0  0  0  0  0  0  0  0  0  0
   11.4679   -9.7558    0.0000 O   0  0  0  0  0  0  0  0  0  0  0  0
   12.1824  -10.9934    0.0000 C   0  0  0  0  0  0  0  0  0  0  0  0
  1  2  1  0  0  0  0
  1  3  1  0  0  0  0
  2  4  1  0  0  0  0
  3  5  1  0  0  0  0
  4  6  1  0  0  0  0
  5  6  1  0  0  0  0
  1  7  1  1  0  0  0
  2  8  1  6  0  0  0
  4  9  1  1  0  0  0
  6 10  1  1  0  0  0
  5 11  1  1  0  0  0
 12 11  1  0  0  0  0
 14 13  2  0  0  0  0
  8 13  1  0  0  0  0
 15 13  1  0  0  0  0
 16 17  1  0  0  0  0
 16 18  1  0  0  0  0
 17 19  1  0  0  0  0
 18 20  1  0  0  0  0
 19 21  1  0  0  0  0
 20 21  1  0  0  0  0
 16 22  1  6  0  0  0
 17 23  1  6  0  0  0
 19 24  1  1  0  0  0
 21  7  1  1  0  0  0
 20 25  1  1  0  0  0
 26 25  1  0  0  0  0
 28 27  2  0  0  0  0
 23 27  1  0  0  0  0
 29 27  1  0  0  0  0
M  END
> <ID>
CHEBI:59357

> <NAME>
beta-D-GalpNAc-(1->4)-alpha-D-GalpNAc

> <DEFINITION>
An amino disaccharide consisting of N-acetyl-α-D-galactosamine having an N-acetyl-D-galactosaminyl residue attached at the 4-position via a β-linkage. Important epitope forming part of the O-polysaccharides of some Gram-negative bacteria.

> <STAR>
3

> <SYNONYM>
GalNAcbeta1-4GalNAcalpha; beta-D-GalNAc-(1->4)-alpha-D-GalNAc; 2-acetamido-4-O-(2-acetamido-2-deoxy-beta-D-galactopyranosyl)-2-deoxy-alpha-D-galactopyranose

> <IUPAC_NAME>
beta-D-2-acetamido-2-deoxy-galactopyranosyl-(1->4)-alpha-D-2-acetamido-2-deoxy-galactopyranose

> <FORMULA>
C16H28N2O11

> <MASS>
424.40030

> <MONOISOTOPIC_MASS>
424.16931

> <CHARGE>
0

> <SMILES>
CC(=O)N[C@H]1[C@@H](O)O[C@H](CO)[C@H](O[C@@H]2O[C@H](CO)[C@H](O)[C@H](O)[C@H]2NC(C)=O)[C@@H]1O

> <INCHI>
InChI=1S/C16H28N2O11/c1-5(21)17-9-13(25)14(8(4-20)27-15(9)26)29-16-10(18-6(2)22)12(24)11(23)7(3-19)28-16/h7-16,19-20,23-26H,3-4H2,1-2H3,(H,17,21)(H,18,22)/t7-,8-,9-,10-,11+,12-,13-,14+,15+,16+/m1/s1

> <INCHIKEY>
CDOJPCSDOXYJJF-IZXYEPCWSA-N

> <PUBMED_CITATION>
16736109

$$$$

Marvin  05061014562D          

 13 13  0  0  1  0            999 V2000
   10.8741   -4.6609    0.0000 O   0  0  0  0  0  0  0  0  0  0  0  0
   10.1597   -5.0734    0.0000 C   0  0  2  0  0  0  0  0  0  0  0  0
   11.5886   -5.0734    0.0000 C   0  0  2  0  0  0  0  0  0  0  0  0
   11.5886   -5.8984    0.0000 C   0  0  2  0  0  0  0  0  0  0  0  0
   10.8741   -6.3109    0.0000 C   0  0  1  0  0  0  0  0  0  0  0  0
   10.1597   -5.8984    0.0000 C   0  0  2  0  0  0  0  0  0  0  0  0
   12.3030   -4.6609    0.0000 O   0  0  0  0  0  0  0  0  0  0  0  0
   12.3030   -6.3109    0.0000 O   0  0  0  0  0  0  0  0  0  0  0  0
   10.8741   -7.1358    0.0000 O   0  0  0  0  0  0  0  0  0  0  0  0
    9.4453   -6.3109    0.0000 O   0  0  0  0  0  0  0  0  0  0  0  0
    9.4452   -4.6609    0.0000 C   0  0  0  0  0  0  0  0  0  0  0  0
    8.7308   -5.8984    0.0000 C   0  0  0  0  0  0  0  0  0  0  0  0
   12.3030   -7.1359    0.0000 C   0  0  0  0  0  0  0  0  0  0  0  0
  2  1  1  0  0  0  0
  3  1  1  0  0  0  0
  3  7  1  1  0  0  0
  3  4  1  0  0  0  0
  4  8  1  1  0  0  0
  4  5  1  0  0  0  0
  5  9  1  6  0  0  0
  5  6  1  0  0  0  0
  6  2  1  0  0  0  0
  6 10  1  6  0  0  0
  2 11  1  6  0  0  0
 10 12  1  0  0  0  0
  8 13  1  0  0  0  0
M  END
> <ID>
CHEBI:59364

> <NAME>
2,4-di-O-methyl-alpha-L-fucopyranose

> <DEFINITION>
A monosaccharide derivative that is the 2,4-di-O-methyl derivative of α-L-fucopyranose.

> <STAR>
3

> <SYNONYM>
GPL-26 terminal monosaccharide; 2,4-di-O-methyl-alpha-L-fucose

> <IUPAC_NAME>
6-deoxy-2,4-di-O-methyl-alpha-L-galactopyranose; 2,4-di-O-methyl-alpha-L-fucopyranose

> <FORMULA>
C8H16O5

> <MASS>
192.20960

> <MONOISOTOPIC_MASS>
192.09977

> <CHARGE>
0

> <SMILES>
CO[C@@H]1[C@H](C)O[C@@H](O)[C@@H](OC)[C@@H]1O

> <INCHI>
InChI=1S/C8H16O5/c1-4-6(11-2)5(9)7(12-3)8(10)13-4/h4-10H,1-3H3/t4-,5+,6+,7-,8+/m0/s1

> <INCHIKEY>
DEZVZPAUENCSBH-FMGWEMOISA-N

> <BEILSTEIN_REGISTRY_NUMBER>
5730196

> <REAXYS_REGISTRY_NUMBER>
5730196

> <PUBMED_CITATION>
1284113

$$$$

Marvin  05061015162D          

 23 24  0  0  1  0            999 V2000
   10.8741   -4.6609    0.0000 O   0  0  0  0  0  0  0  0  0  0  0  0
   10.1597   -5.0734    0.0000 C   0  0  2  0  0  0  0  0  0  0  0  0
   11.5886   -5.0734    0.0000 C   0  0  2  0  0  0  0  0  0  0  0  0
   11.5886   -5.8984    0.0000 C   0  0  2  0  0  0  0  0  0  0  0  0
   10.8741   -6.3109    0.0000 C   0  0  1  0  0  0  0  0  0  0  0  0
   10.1597   -5.8984    0.0000 C   0  0  2  0  0  0  0  0  0  0  0  0
   12.3030   -4.6609    0.0000 O   0  0  0  0  0  0  0  0  0  0  0  0
   12.3030   -6.3109    0.0000 O   0  0  0  0  0  0  0  0  0  0  0  0
   10.8741   -7.1358    0.0000 O   0  0  0  0  0  0  0  0  0  0  0  0
    9.4453   -6.3109    0.0000 O   0  0  0  0  0  0  0  0  0  0  0  0
    9.4452   -4.6609    0.0000 C   0  0  0  0  0  0  0  0  0  0  0  0
   12.3030   -7.1359    0.0000 C   0  0  0  0  0  0  0  0  0  0  0  0
    8.7309   -5.8983    0.0000 C   0  0  1  0  0  0  0  0  0  0  0  0
    8.0163   -6.3109    0.0000 C   0  0  1  0  0  0  0  0  0  0  0  0
    8.7309   -5.0733    0.0000 O   0  0  0  0  0  0  0  0  0  0  0  0
    7.3018   -5.8983    0.0000 C   0  0  1  0  0  0  0  0  0  0  0  0
    8.0165   -4.6609    0.0000 C   0  0  2  0  0  0  0  0  0  0  0  0
    7.3019   -5.0734    0.0000 C   0  0  2  0  0  0  0  0  0  0  0  0
    8.0163   -7.1359    0.0000 O   0  0  0  0  0  0  0  0  0  0  0  0
    6.5873   -6.3108    0.0000 O   0  0  0  0  0  0  0  0  0  0  0  0
    6.5874   -4.6609    0.0000 O   0  0  0  0  0  0  0  0  0  0  0  0
    8.0165   -3.8359    0.0000 C   0  0  0  0  0  0  0  0  0  0  0  0
    6.5875   -3.8359    0.0000 C   0  0  0  0  0  0  0  0  0  0  0  0
  2  1  1  0  0  0  0
  3  1  1  0  0  0  0
  3  7  1  1  0  0  0
  3  4  1  0  0  0  0
  4  8  1  1  0  0  0
  4  5  1  0  0  0  0
  5  9  1  6  0  0  0
  5  6  1  0  0  0  0
  6  2  1  0  0  0  0
  6 10  1  6  0  0  0
  2 11  1  6  0  0  0
  8 12  1  0  0  0  0
 13 14  1  0  0  0  0
 13 15  1  0  0  0  0
 14 16  1  0  0  0  0
 15 17  1  0  0  0  0
 16 18  1  0  0  0  0
 17 18  1  0  0  0  0
 13 10  1  1  0  0  0
 14 19  1  6  0  0  0
 16 20  1  6  0  0  0
 18 21  1  1  0  0  0
 17 22  1  6  0  0  0
 21 23  1  0  0  0  0
M  END
> <ID>
CHEBI:59365

> <NAME>
4-O-methyl-alpha-L-rhamnopyranosyl-(1->4)-2-O-methyl-alpha-L-fucopyranose

> <DEFINITION>
A disaccharide derivative consisting of 2-O-methyl-α-L-fucopyranose having a 4-O-methyl-α-L-rhamnopyranosyl residue attached at the 4-position.

> <STAR>
3

> <SYNONYM>
GPL-4 terminal disaccharide; alpha-L-Rhap4Me-(1->4)-alpha-L-Fucp2Me; 4-O-methyl-alpha-L-Rhap-(1->4)-2-O-methyl-alpha-L-Fucp; 4-O-methyl-alpha-L-Rha-(1->4)-2-O-methyl-alpha-L-Fuc

> <IUPAC_NAME>
6-deoxy-4-O-(6-deoxy-4-O-methyl-alpha-L-mannopyranosyl)-2-O-methyl-alpha-L-galactopyranose; 4-O-(4-O-methyl-alpha-L-rhamnopyranosyl)-2-O-methyl-alpha-L-fucopyranose

> <FORMULA>
C14H26O9

> <MASS>
338.35080

> <MONOISOTOPIC_MASS>
338.15768

> <CHARGE>
0

> <SMILES>
CO[C@H]1[C@H](C)O[C@@H](O[C@@H]2[C@H](C)O[C@@H](O)[C@@H](OC)[C@@H]2O)[C@H](O)[C@@H]1O

> <INCHI>
InChI=1S/C14H26O9/c1-5-10(19-3)7(15)8(16)14(22-5)23-11-6(2)21-13(18)12(20-4)9(11)17/h5-18H,1-4H3/t5-,6-,7-,8+,9+,10-,11+,12-,13+,14-/m0/s1

> <INCHIKEY>
LBSDZLHHISPQFD-BRPGEPNHSA-N

> <PUBMED_CITATION>
2476400

$$$$

Marvin  05061016102D          

 26 27  0  0  1  0            999 V2000
   11.4726   -1.8050    0.0000 O   0  0  0  0  0  0  0  0  0  0  0  0
   10.7582   -2.2175    0.0000 C   0  0  2  0  0  0  0  0  0  0  0  0
   12.1871   -2.2175    0.0000 C   0  0  2  0  0  0  0  0  0  0  0  0
   12.1871   -3.0425    0.0000 C   0  0  1  0  0  0  0  0  0  0  0  0
   11.4726   -3.4550    0.0000 C   0  0  1  0  0  0  0  0  0  0  0  0
   10.7582   -3.0425    0.0000 C   0  0  1  0  0  0  0  0  0  0  0  0
   12.9015   -1.8050    0.0000 O   0  0  0  0  0  0  0  0  0  0  0  0
   12.9015   -3.4550    0.0000 O   0  0  0  0  0  0  0  0  0  0  0  0
   11.4726   -4.2800    0.0000 O   0  0  0  0  0  0  0  0  0  0  0  0
   10.0437   -1.8050    0.0000 C   0  0  0  0  0  0  0  0  0  0  0  0
   10.7581   -4.6923    0.0000 C   0  0  1  0  0  0  0  0  0  0  0  0
   10.7581   -5.5175    0.0000 C   0  0  2  0  0  0  0  0  0  0  0  0
   10.0436   -4.2798    0.0000 O   0  0  0  0  0  0  0  0  0  0  0  0
   10.0435   -5.9300    0.0000 C   0  0  1  0  0  0  0  0  0  0  0  0
    9.3292   -4.6922    0.0000 C   0  0  2  0  0  0  0  0  0  0  0  0
    9.3292   -5.5173    0.0000 C   0  0  1  0  0  0  0  0  0  0  0  0
   11.4725   -5.9300    0.0000 O   0  0  0  0  0  0  0  0  0  0  0  0
   10.0434   -6.7550    0.0000 O   0  0  0  0  0  0  0  0  0  0  0  0
    8.6147   -5.9298    0.0000 O   0  0  0  0  0  0  0  0  0  0  0  0
    8.6148   -4.2797    0.0000 C   0  0  0  0  0  0  0  0  0  0  0  0
    7.9003   -5.5172    0.0000 C   0  0  0  0  0  0  0  0  0  0  0  0
   10.0437   -3.4550    0.0000 O   0  0  0  0  0  0  0  0  0  0  0  0
    7.1857   -5.9296    0.0000 C   0  0  0  0  0  0  0  0  0  0  0  0
    7.9004   -4.6922    0.0000 O   0  0  0  0  0  0  0  0  0  0  0  0
    9.3290   -7.1675    0.0000 C   0  0  0  0  0  0  0  0  0  0  0  0
   11.4725   -6.7550    0.0000 C   0  0  0  0  0  0  0  0  0  0  0  0
  2  1  1  0  0  0  0
  3  1  1  0  0  0  0
  3  7  1  1  0  0  0
  3  4  1  0  0  0  0
  4  8  1  6  0  0  0
  4  5  1  0  0  0  0
  5  9  1  6  0  0  0
  5  6  1  0  0  0  0
  6  2  1  0  0  0  0
  2 10  1  6  0  0  0
 11 12  1  0  0  0  0
 11 13  1  0  0  0  0
 12 14  1  0  0  0  0
 13 15  1  0  0  0  0
 14 16  1  0  0  0  0
 15 16  1  0  0  0  0
 11  9  1  1  0  0  0
 12 17  1  1  0  0  0
 14 18  1  6  0  0  0
 16 19  1  6  0  0  0
 15 20  1  6  0  0  0
 19 21  1  0  0  0  0
  6 22  1  1  0  0  0
 21 23  1  0  0  0  0
 21 24  2  0  0  0  0
 18 25  1  0  0  0  0
 17 26  1  0  0  0  0
M  END
> <ID>
CHEBI:59371

> <NAME>
4-O-acetyl-2,3-di-O-methyl-alpha-L-fucopyranosyl-(1->3)-alpha-L-rhamnopyranose

> <DEFINITION>
A glycosylrhamnose derivative consisting of α-L-rhamnopyranose having a 4-O-acetyl-2,3-di-O-methyl-α-L-galactopyranosyl residue attached at the 3-position.

> <STAR>
3

> <SYNONYM>
Fuc4Ac2,3Me2alpha1-3Rhaalpha; alpha-L-Fucp4Ac2,3Me2-(1->3)-alpha-L-Rhap; Acetyl-GPL-2 terminal disaccharide; 4-Ac-2,3-di-O-Me-alpha-L-Fucp-(1->3)-alpha-L-Rhap; 4-Ac-2,3-di-O-Me-alpha-L-Fuc-(1->3)-alpha-L-Rha; 3-O-(4-O-acetyl-2,3-di-O-methyl-alpha-L-fucosyl)-alpha-L-rhamnose

> <IUPAC_NAME>
3-O-(4-O-acetyl-6-deoxy-2,3-di-O-methyl-alpha-L-galactopyranosyl)-6-deoxy-alpha-L-mannopyranose; 3-O-(4-O-acetyl-2,3-di-O-methyl-alpha-L-fucopyranosyl)-alpha-L-rhamnopyranose

> <FORMULA>
C16H28O10

> <MASS>
380.38750

> <MONOISOTOPIC_MASS>
380.16825

> <CHARGE>
0

> <SMILES>
CO[C@@H]1[C@@H](O[C@@H](C)[C@@H](OC(C)=O)[C@H]1OC)O[C@@H]1[C@@H](O)[C@H](C)O[C@@H](O)[C@@H]1O

> <INCHI>
InChI=1S/C16H28O10/c1-6-9(18)12(10(19)15(20)23-6)26-16-14(22-5)13(21-4)11(7(2)24-16)25-8(3)17/h6-7,9-16,18-20H,1-5H3/t6-,7-,9-,10+,11+,12+,13+,14-,15+,16-/m0/s1

> <INCHIKEY>
QFMCJDANIUEKGZ-DPZNFSIDSA-N

> <PUBMED_CITATION>
2476400

$$$$

Marvin  05111011322D          

 46 49  0  0  1  0            999 V2000
   11.2190  -11.7438    0.0000 O   0  0  0  0  0  0  0  0  0  0  0  0
   11.9335  -10.5063    0.0000 C   0  0  1  0  0  0  0  0  0  0  0  0
   11.9335  -11.3313    0.0000 C   0  0  1  0  0  0  0  0  0  0  0  0
   12.6480  -10.0938    0.0000 O   0  0  0  0  0  0  0  0  0  0  0  0
   12.6480  -11.7438    0.0000 C   0  0  1  0  0  0  0  0  0  0  0  0
   13.3625  -10.5063    0.0000 C   0  0  2  0  0  0  0  0  0  0  0  0
   13.3625  -11.3313    0.0000 C   0  0  2  0  0  0  0  0  0  0  0  0
   11.2190  -10.0938    0.0000 O   0  0  0  0  0  0  0  0  0  0  0  0
   12.6480  -12.5688    0.0000 O   0  0  0  0  0  0  0  0  0  0  0  0
   14.0769  -11.7438    0.0000 O   0  0  0  0  0  0  0  0  0  0  0  0
   14.0769  -10.0938    0.0000 C   0  0  0  0  0  0  0  0  0  0  0  0
   11.9335   -8.0313    0.0000 C   0  0  1  0  0  0  0  0  0  0  0  0
   11.9335   -8.8563    0.0000 C   0  0  1  0  0  0  0  0  0  0  0  0
   11.2190   -7.6188    0.0000 O   0  0  0  0  0  0  0  0  0  0  0  0
   11.2190   -9.2688    0.0000 C   0  0  1  0  0  0  0  0  0  0  0  0
   10.5046   -8.0313    0.0000 C   0  0  2  0  0  0  0  0  0  0  0  0
   10.5046   -8.8563    0.0000 C   0  0  2  0  0  0  0  0  0  0  0  0
   12.6480   -7.6188    0.0000 O   0  0  0  0  0  0  0  0  0  0  0  0
   12.6480   -9.2688    0.0000 O   0  0  0  0  0  0  0  0  0  0  0  0
    9.7901   -9.2688    0.0000 O   0  0  0  0  0  0  0  0  0  0  0  0
    9.7901   -7.6188    0.0000 C   0  0  0  0  0  0  0  0  0  0  0  0
   13.3625   -5.5563    0.0000 C   0  0  1  0  0  0  0  0  0  0  0  0
   13.3625   -6.3813    0.0000 C   0  0  1  0  0  0  0  0  0  0  0  0
   12.6480   -5.1438    0.0000 O   0  0  0  0  0  0  0  0  0  0  0  0
   12.6480   -6.7938    0.0000 C   0  0  2  0  0  0  0  0  0  0  0  0
   11.9335   -5.5563    0.0000 C   0  0  1  0  0  0  0  0  0  0  0  0
   11.9335   -6.3813    0.0000 C   0  0  1  0  0  0  0  0  0  0  0  0
   14.0770   -5.1438    0.0000 O   0  0  0  0  0  0  0  0  0  0  0  0
   14.0770   -6.7938    0.0000 N   0  0  0  0  0  0  0  0  0  0  0  0
   11.2191   -6.7938    0.0000 O   0  0  0  0  0  0  0  0  0  0  0  0
   11.2191   -5.1438    0.0000 C   0  0  0  0  0  0  0  0  0  0  0  0
   10.5046   -5.5563    0.0000 O   0  0  0  0  0  0  0  0  0  0  0  0
   14.7915   -6.3813    0.0000 C   0  0  0  0  0  0  0  0  0  0  0  0
   14.7915   -5.5563    0.0000 O   0  0  0  0  0  0  0  0  0  0  0  0
   15.5059   -6.7938    0.0000 C   0  0  0  0  0  0  0  0  0  0  0  0
    9.0756   -8.8563    0.0000 C   0  0  2  0  0  0  0  0  0  0  0  0
    8.3612   -9.2688    0.0000 C   0  0  1  0  0  0  0  0  0  0  0  0
    9.0757   -8.0312    0.0000 O   0  0  0  0  0  0  0  0  0  0  0  0
    7.6467   -8.8562    0.0000 C   0  0  2  0  0  0  0  0  0  0  0  0
    8.3612   -7.6187    0.0000 C   0  0  1  0  0  0  0  0  0  0  0  0
    7.6467   -8.0312    0.0000 C   0  0  1  0  0  0  0  0  0  0  0  0
    8.3612  -10.0938    0.0000 O   0  0  0  0  0  0  0  0  0  0  0  0
    6.9322   -9.2687    0.0000 O   0  0  0  0  0  0  0  0  0  0  0  0
    6.9322   -7.6187    0.0000 O   0  0  0  0  0  0  0  0  0  0  0  0
    8.3612   -6.7937    0.0000 C   0  0  0  0  0  0  0  0  0  0  0  0
    7.6468   -6.3812    0.0000 O   0  0  0  0  0  0  0  0  0  0  0  0
  2  3  1  0  0  0  0
  2  4  1  0  0  0  0
  3  5  1  0  0  0  0
  4  6  1  0  0  0  0
  5  7  1  0  0  0  0
  6  7  1  0  0  0  0
  2  8  1  6  0  0  0
  3  1  1  1  0  0  0
  5  9  1  1  0  0  0
  7 10  1  6  0  0  0
  6 11  1  1  0  0  0
 12 13  1  0  0  0  0
 12 14  1  0  0  0  0
 13 15  1  0  0  0  0
 14 16  1  0  0  0  0
 15 17  1  0  0  0  0
 16 17  1  0  0  0  0
 12 18  1  1  0  0  0
 13 19  1  6  0  0  0
 15  8  1  6  0  0  0
 17 20  1  1  0  0  0
 16 21  1  6  0  0  0
 22 23  1  0  0  0  0
 22 24  1  0  0  0  0
 23 25  1  0  0  0  0
 24 26  1  0  0  0  0
 25 27  1  0  0  0  0
 26 27  1  0  0  0  0
 22 28  1  1  0  0  0
 23 29  1  6  0  0  0
 25 18  1  1  0  0  0
 27 30  1  6  0  0  0
 26 31  1  1  0  0  0
 32 31  1  0  0  0  0
 34 33  2  0  0  0  0
 29 33  1  0  0  0  0
 35 33  1  0  0  0  0
 36 37  1  0  0  0  0
 36 38  1  0  0  0  0
 37 39  1  0  0  0  0
 38 40  1  0  0  0  0
 39 41  1  0  0  0  0
 40 41  1  0  0  0  0
 36 20  1  6  0  0  0
 37 42  1  6  0  0  0
 39 43  1  1  0  0  0
 41 44  1  6  0  0  0
 40 45  1  1  0  0  0
 46 45  1  0  0  0  0
M  END
> <ID>
CHEBI:59382

> <NAME>
alpha-L-Rhap-(1->3)-[alpha-D-Glcp-(1->4)]-alpha-L-Rhap-(1->3)-beta-D-GlcpNAc

> <DEFINITION>
A branched tetrasaccharide consisting of an α-L-Rha-(1→3)-α-L-Rha-(1→3)-β-D-GlcNAc trisaccharide chain, to the central rhamnose residue is also linked α(1→4) a D-glucose residue. Derived from the Shigella liposaccharide O-antigen, it has antigenic properties.

> <STAR>
3

> <SYNONYM>
Rhaalpha1-3(Glcalpha1-4)Rhaalpha1-3GlcNAcbeta; B(E)CD; alpha-L-Rha-(1->3)-[alpha-D-Glc-(1->4)]-alpha-L-Rha-(1->3)-beta-D-GlcNAc; 6-deoxy-alpha-L-mannopyranosyl-(1->3)-[alpha-D-glucopyranosyl-(1->4)]-6-deoxy-alpha-L-mannopyranosyl-(1->3)-2-acetamido-2-deoxy-beta-D-glucopyranose

> <IUPAC_NAME>
alpha-L-rhamnopyranosyl-(1->3)-[alpha-D-glucopyranosyl-(1->4)]-alpha-L-rhamnopyranosyl-(1->3)-2-acetamido-2-deoxy-beta-D-glucopyranose

> <FORMULA>
C26H45NO19

> <MASS>
675.63080

> <MONOISOTOPIC_MASS>
675.25858

> <CHARGE>
0

> <SMILES>
C[C@@H]1O[C@@H](O[C@H]2[C@@H](O)[C@@H](O[C@@H](C)[C@@H]2O[C@H]2O[C@H](CO)[C@@H](O)[C@H](O)[C@H]2O)O[C@H]2[C@H](O)[C@@H](CO)O[C@@H](O)[C@@H]2NC(C)=O)[C@H](O)[C@H](O)[C@H]1O

> <INCHI>
InChI=1S/C26H45NO19/c1-6-12(31)15(34)17(36)24(40-6)46-22-19(38)26(45-21-11(27-8(3)30)23(39)42-10(5-29)14(21)33)41-7(2)20(22)44-25-18(37)16(35)13(32)9(4-28)43-25/h6-7,9-26,28-29,31-39H,4-5H2,1-3H3,(H,27,30)/t6-,7-,9+,10+,11+,12-,13+,14+,15+,16-,17+,18+,19+,20-,21+,22-,23+,24-,25+,26-/m0/s1

> <INCHIKEY>
UUQJMDNZQAFCGI-WKWJULSXSA-N

> <PUBMED_CITATION>
16424198

$$$$

Marvin  05071014552D          

 37 39  0  0  1  0            999 V2000
   16.6543   -4.1996    0.0000 C   0  0  0  0  0  0  0  0  0  0  0  0
   16.6543   -5.0246    0.0000 C   0  0  1  0  0  0  0  0  0  0  0  0
   15.9398   -3.7871    0.0000 O   0  0  0  0  0  0  0  0  0  0  0  0
   15.9398   -5.4371    0.0000 C   0  0  2  0  0  0  0  0  0  0  0  0
   15.2253   -4.1996    0.0000 C   0  0  1  0  0  0  0  0  0  0  0  0
   15.2253   -5.0246    0.0000 C   0  0  2  0  0  0  0  0  0  0  0  0
   17.3688   -3.7871    0.0000 O   0  0  0  0  0  0  0  0  0  0  0  0
   17.3688   -5.4371    0.0000 O   0  0  0  0  0  0  0  0  0  0  0  0
   15.9398   -6.2621    0.0000 O   0  0  0  0  0  0  0  0  0  0  0  0
   14.5108   -5.4371    0.0000 O   0  0  0  0  0  0  0  0  0  0  0  0
   14.5108   -3.7871    0.0000 C   0  0  0  0  0  0  0  0  0  0  0  0
   13.7964   -4.1996    0.0000 O   0  0  0  0  0  0  0  0  0  0  0  0
   15.2253   -6.6746    0.0000 C   0  0  1  0  0  0  0  0  0  0  0  0
   15.2253   -7.4996    0.0000 C   0  0  1  0  0  0  0  0  0  0  0  0
   14.5108   -6.2621    0.0000 O   0  0  0  0  0  0  0  0  0  0  0  0
   14.5108   -7.9121    0.0000 C   0  0  2  0  0  0  0  0  0  0  0  0
   13.7963   -6.6746    0.0000 C   0  0  1  0  0  0  0  0  0  0  0  0
   13.7963   -7.4996    0.0000 C   0  0  1  0  0  0  0  0  0  0  0  0
   15.9398   -7.9121    0.0000 N   0  0  0  0  0  0  0  0  0  0  0  0
   14.5107   -8.7371    0.0000 O   0  0  0  0  0  0  0  0  0  0  0  0
   13.0818   -7.9121    0.0000 O   0  0  0  0  0  0  0  0  0  0  0  0
   13.0818   -6.2621    0.0000 C   0  0  0  0  0  0  0  0  0  0  0  0
   12.3674   -6.6746    0.0000 O   0  0  0  0  0  0  0  0  0  0  0  0
   12.3674   -8.3246    0.0000 C   0  0  1  0  0  0  0  0  0  0  0  0
   12.3674   -9.1496    0.0000 C   0  0  1  0  0  0  0  0  0  0  0  0
   11.6528   -7.9121    0.0000 O   0  0  0  0  0  0  0  0  0  0  0  0
   11.6528   -9.5621    0.0000 C   0  0  2  0  0  0  0  0  0  0  0  0
   10.9384   -8.3246    0.0000 C   0  0  1  0  0  0  0  0  0  0  0  0
   10.9384   -9.1496    0.0000 C   0  0  2  0  0  0  0  0  0  0  0  0
   13.0818   -9.5621    0.0000 O   0  0  0  0  0  0  0  0  0  0  0  0
   11.6528  -10.3872    0.0000 O   0  0  0  0  0  0  0  0  0  0  0  0
   10.2239   -9.5621    0.0000 O   0  0  0  0  0  0  0  0  0  0  0  0
   10.2239   -7.9121    0.0000 C   0  0  0  0  0  0  0  0  0  0  0  0
    9.5094   -8.3246    0.0000 O   0  0  0  0  0  0  0  0  0  0  0  0
   16.6542   -7.4996    0.0000 C   0  0  0  0  0  0  0  0  0  0  0  0
   16.6542   -6.6746    0.0000 O   0  0  0  0  0  0  0  0  0  0  0  0
   17.3687   -7.9121    0.0000 C   0  0  0  0  0  0  0  0  0  0  0  0
  1  2  1  0  0  0  0
  1  3  1  0  0  0  0
  2  4  1  0  0  0  0
  3  5  1  0  0  0  0
  4  6  1  0  0  0  0
  5  6  1  0  0  0  0
  1  7  1  0  0  0  0
  2  8  1  6  0  0  0
  4  9  1  1  0  0  0
  6 10  1  1  0  0  0
  5 11  1  1  0  0  0
 12 11  1  0  0  0  0
 13 14  1  0  0  0  0
 13 15  1  0  0  0  0
 14 16  1  0  0  0  0
 15 17  1  0  0  0  0
 16 18  1  0  0  0  0
 17 18  1  0  0  0  0
 13  9  1  1  0  0  0
 14 19  1  6  0  0  0
 16 20  1  1  0  0  0
 18 21  1  6  0  0  0
 17 22  1  1  0  0  0
 23 22  1  0  0  0  0
 24 25  1  0  0  0  0
 24 26  1  0  0  0  0
 25 27  1  0  0  0  0
 26 28  1  0  0  0  0
 27 29  1  0  0  0  0
 28 29  1  0  0  0  0
 24 21  1  1  0  0  0
 25 30  1  6  0  0  0
 27 31  1  1  0  0  0
 29 32  1  1  0  0  0
 28 33  1  1  0  0  0
 34 33  1  0  0  0  0
 36 35  2  0  0  0  0
 37 35  1  0  0  0  0
 19 35  1  0  0  0  0
M  END
> <ID>
CHEBI:59387

> <NAME>
beta-D-Galp-(1->4)-beta-D-GlcpNAc-(1->3)-D-Galp

> <DEFINITION>
An amino trisaccharide consisting of an N-acetyl-D-glucosamine flanked by two D-galactose residues in a linear sequence.

> <STAR>
3

> <SYNONYM>
Paragloboside tbeta-D-galactopyranosyl-(1->4)-2-acetamido-2-deoxy-beta-D-glucopyranosyl-(1->3)-D-galactopyranoserisaccharide; Galbeta1-4GlcNAcbeta1-3Gal; beta-D-galactosyl-(1->4)-N-acetyl-beta-D-glucosaminyl-(1->3)-D-galactose; beta-D-Gal-(1->4)-beta-D-GlcNAc-(1->3)-D-Gal

> <IUPAC_NAME>
beta-D-galactopyranosyl-(1->4)-2-acetamido-2-deoxy-beta-D-glucopyranosyl-(1->3)-D-galactopyranose

> <FORMULA>
C20H35NO16

> <MASS>
545.48900

> <MONOISOTOPIC_MASS>
545.19558

> <CHARGE>
0

> <SMILES>
CC(=O)N[C@@H]1[C@@H](O)[C@H](O[C@@H]2O[C@H](CO)[C@H](O)[C@H](O)[C@H]2O)[C@@H](CO)O[C@H]1O[C@@H]1[C@@H](O)C(O)O[C@H](CO)[C@@H]1O

> <INCHI>
InChI=1S/C20H35NO16/c1-5(25)21-9-12(28)16(36-20-14(30)13(29)10(26)6(2-22)34-20)8(4-24)35-19(9)37-17-11(27)7(3-23)33-18(32)15(17)31/h6-20,22-24,26-32H,2-4H2,1H3,(H,21,25)/t6-,7-,8-,9-,10+,11+,12-,13+,14-,15-,16-,17+,18?,19+,20+/m1/s1

> <INCHIKEY>
VGVHVNDLCYSGNE-DYAHILLTSA-N

> <BEILSTEIN_REGISTRY_NUMBER>
4620254

> <PUBMED_CITATION>
8678291

$$$$

Marvin  06011112222D          

 40 42  0  0  1  0            999 V2000
    8.6546  -12.6384    0.0000 O   0  0  0  0  0  0  0  0  0  0  0  0
    9.3691  -10.5759    0.0000 C   0  0  2  0  0  0  0  0  0  0  0  0
    9.3691  -11.4009    0.0000 C   0  0  1  0  0  0  0  0  0  0  0  0
    8.6546  -10.1634    0.0000 O   0  0  0  0  0  0  0  0  0  0  0  0
    8.6546  -11.8134    0.0000 C   0  0  2  0  0  0  0  0  0  0  0  0
    7.9401  -10.5759    0.0000 C   0  0  1  0  0  0  0  0  0  0  0  0
    7.9401  -11.4009    0.0000 C   0  0  2  0  0  0  0  0  0  0  0  0
   10.0835  -10.1634    0.0000 O   0  0  0  0  0  0  0  0  0  0  0  0
   10.0835  -11.8134    0.0000 N   0  0  0  0  0  0  0  0  0  0  0  0
    7.2256  -11.8134    0.0000 O   0  0  0  0  0  0  0  0  0  0  0  0
    7.2256  -10.1634    0.0000 C   0  0  0  0  0  0  0  0  0  0  0  0
    6.5112  -10.5759    0.0000 O   0  0  0  0  0  0  0  0  0  0  0  0
   10.7980   -8.9259    0.0000 C   0  0  2  0  0  0  0  0  0  0  0  0
   10.0835   -9.3384    0.0000 C   0  0  2  0  0  0  0  0  0  0  0  0
   10.7980   -8.1008    0.0000 O   0  0  0  0  0  0  0  0  0  0  0  0
    9.3691   -8.9259    0.0000 C   0  0  2  0  0  0  0  0  0  0  0  0
   10.0835   -7.6884    0.0000 C   0  0  1  0  0  0  0  0  0  0  0  0
    9.3691   -8.1009    0.0000 C   0  0  1  0  0  0  0  0  0  0  0  0
   11.5125   -9.3384    0.0000 O   0  0  0  0  0  0  0  0  0  0  0  0
    8.6546   -9.3384    0.0000 O   0  0  0  0  0  0  0  0  0  0  0  0
    8.6546   -7.6884    0.0000 O   0  0  0  0  0  0  0  0  0  0  0  0
   10.0835   -6.8634    0.0000 C   0  0  1  0  0  0  0  0  0  0  0  0
    9.3690   -6.4509    0.0000 C   0  0  0  0  0  0  0  0  0  0  0  0
   10.9010   -7.2157    0.0000 H   0  0  0  0  0  0  0  0  0  0  0  0
   10.7980   -6.4509    0.0000 O   0  0  0  0  0  0  0  0  0  0  0  0
    9.3690   -5.6259    0.0000 O   0  0  0  0  0  0  0  0  0  0  0  0
   10.0835  -12.6384    0.0000 C   0  0  0  0  0  0  0  0  0  0  0  0
   10.7980  -13.0509    0.0000 O   0  0  0  0  0  0  0  0  0  0  0  0
    9.3691  -13.0509    0.0000 C   0  0  0  0  0  0  0  0  0  0  0  0
   14.3704   -9.3384    0.0000 C   0  0  2  0  0  0  0  0  0  0  0  0
   14.3704  -10.1634    0.0000 C   0  0  1  0  0  0  0  0  0  0  0  0
   13.6559   -8.9259    0.0000 O   0  0  0  0  0  0  0  0  0  0  0  0
   13.6559  -10.5759    0.0000 C   0  0  2  0  0  0  0  0  0  0  0  0
   12.9415   -9.3384    0.0000 C   0  0  1  0  0  0  0  0  0  0  0  0
   12.9415  -10.1634    0.0000 C   0  0  1  0  0  0  0  0  0  0  0  0
   15.0849   -8.9258    0.0000 O   0  0  0  0  0  0  0  0  0  0  0  0
   15.0849  -10.5759    0.0000 N   0  0  0  0  0  0  0  0  0  0  0  0
   13.6559  -11.4009    0.0000 O   0  0  0  0  0  0  0  0  0  0  0  0
   12.2270  -10.5759    0.0000 O   0  0  0  0  0  0  0  0  0  0  0  0
   12.2270   -8.9259    0.0000 C   0  0  0  0  0  0  0  0  0  0  0  0
  2  3  1  0  0  0  0
  2  4  1  0  0  0  0
  3  5  1  0  0  0  0
  4  6  1  0  0  0  0
  5  7  1  0  0  0  0
  6  7  1  0  0  0  0
  2  8  1  6  0  0  0
  3  9  1  6  0  0  0
  5  1  1  1  0  0  0
  7 10  1  1  0  0  0
  6 11  1  1  0  0  0
 12 11  1  0  0  0  0
 13 14  1  0  0  0  0
 13 15  1  0  0  0  0
 14 16  1  0  0  0  0
 15 17  1  0  0  0  0
 16 18  1  0  0  0  0
 17 18  1  0  0  0  0
 13 19  1  6  0  0  0
 14  8  1  1  0  0  0
 16 20  1  1  0  0  0
 18 21  1  6  0  0  0
 17 22  1  0  0  0  0
 23 22  1  0  0  0  0
 17 24  1  6  0  0  0
 22 25  1  1  0  0  0
 23 26  1  0  0  0  0
 28 27  2  0  0  0  0
 29 27  1  0  0  0  0
  9 27  1  0  0  0  0
 30 31  1  0  0  0  0
 30 32  1  0  0  0  0
 31 33  1  0  0  0  0
 32 34  1  0  0  0  0
 33 35  1  0  0  0  0
 34 35  1  0  0  0  0
 30 36  1  6  0  0  0
 31 37  1  6  0  0  0
 33 38  1  1  0  0  0
 35 39  1  6  0  0  0
 34 40  1  1  0  0  0
 19 40  1  0  0  0  0
M  END
> <ID>
CHEBI:59388

> <NAME>
alpha-D-GalpNAc-(1->2)-alpha-DD-Hepp-(1->6)-alpha-D-GlcpN

> <DEFINITION>
A linear amino trisaccharide consisting of  N-acetyl-α-glucosamine, α-glycero-α-D-manno-heptose and α-glucosamine residues linked (1→2) and (1→6) respectively.

> <STAR>
3

> <SECONDARY_ID>
CHEBI:62261

> <SYNONYM>
N-acetyl-alpha-D-galactosaminyl-(1->2)-D-glycero-alpha-D-manno-heptosyl-(1->6)-alpha-D-glucosamine; GalNAcalpha1-2ddHepalpha1-6GlcNalpha; alpha-GalpNAc-(1->2)-alpha-D-glycero-D-manno-Hepp-(1->6)-alpha-D-GlcpN; alpha-GalNAc-(1->2)-alpha-ddHep-(1->6)-alpha-GlcN

> <IUPAC_NAME>
2-acetamido-2-deoxy-alpha-D-galactopyranosyl-(1->2)-D-glycero-alpha-D-manno-heptopyranosyl-(1->6)-2-amino-2-deoxy-alpha-D-glucopyranose

> <FORMULA>
C21H38N2O16

> <MASS>
574.53020

> <MONOISOTOPIC_MASS>
574.22213

> <CHARGE>
0

> <SMILES>
[H][C@@]1(O[C@H](OC[C@H]2O[C@H](O)[C@H](N)[C@@H](O)[C@@H]2O)[C@@H](O[C@H]2O[C@H](CO)[C@H](O)[C@H](O)[C@H]2NC(C)=O)[C@@H](O)[C@@H]1O)[C@H](O)CO

> <INCHI>
InChI=1S/C21H38N2O16/c1-5(26)23-10-14(31)11(28)7(3-25)37-20(10)39-18-16(33)15(32)17(6(27)2-24)38-21(18)35-4-8-12(29)13(30)9(22)19(34)36-8/h6-21,24-25,27-34H,2-4,22H2,1H3,(H,23,26)/t6-,7-,8-,9-,10-,11+,12-,13-,14-,15+,16+,17-,18+,19+,20-,21+/m1/s1

> <INCHIKEY>
SNOIWCQANKMXDZ-FEZLUZAVSA-N

> <PUBMED_CITATION>
18373243; 21060898

$$$$

Marvin  05071016472D          

 26 27  0  0  1  0            999 V2000
   13.2951   -3.3474    0.0000 C   0  0  2  0  0  0  0  0  0  0  0  0
   13.2951   -4.1724    0.0000 C   0  0  1  0  0  0  0  0  0  0  0  0
   12.5806   -2.9349    0.0000 O   0  0  0  0  0  0  0  0  0  0  0  0
   12.5806   -4.5848    0.0000 C   0  0  2  0  0  0  0  0  0  0  0  0
   11.8661   -3.3474    0.0000 C   0  0  1  0  0  0  0  0  0  0  0  0
   11.8661   -4.1724    0.0000 C   0  0  1  0  0  0  0  0  0  0  0  0
   14.0096   -2.9349    0.0000 O   0  0  0  0  0  0  0  0  0  0  0  0
   14.0096   -4.5848    0.0000 O   0  0  0  0  0  0  0  0  0  0  0  0
   12.5806   -5.4098    0.0000 O   0  0  0  0  0  0  0  0  0  0  0  0
   11.1516   -4.5848    0.0000 O   0  0  0  0  0  0  0  0  0  0  0  0
   11.1516   -2.9349    0.0000 C   0  0  0  0  0  0  0  0  0  0  0  0
   10.4372   -3.3474    0.0000 O   0  0  0  0  0  0  0  0  0  0  0  0
   14.0096   -5.4098    0.0000 C   0  0  2  0  0  0  0  0  0  0  0  0
   14.7240   -5.8223    0.0000 C   0  0  1  0  0  0  0  0  0  0  0  0
   13.2951   -5.8224    0.0000 O   0  0  0  0  0  0  0  0  0  0  0  0
   14.7240   -6.6473    0.0000 C   0  0  2  0  0  0  0  0  0  0  0  0
   13.2951   -6.6474    0.0000 C   0  0  1  0  0  0  0  0  0  0  0  0
   14.0095   -7.0598    0.0000 C   0  0  1  0  0  0  0  0  0  0  0  0
   15.4385   -5.4098    0.0000 N   0  0  0  0  0  0  0  0  0  0  0  0
   15.4384   -7.0600    0.0000 O   0  0  0  0  0  0  0  0  0  0  0  0
   14.0095   -7.8848    0.0000 O   0  0  0  0  0  0  0  0  0  0  0  0
   12.5806   -7.0599    0.0000 C   0  0  0  0  0  0  0  0  0  0  0  0
   12.5806   -7.8848    0.0000 O   0  0  0  0  0  0  0  0  0  0  0  0
   16.1529   -5.8223    0.0000 C   0  0  0  0  0  0  0  0  0  0  0  0
   16.8674   -5.4098    0.0000 O   0  0  0  0  0  0  0  0  0  0  0  0
   16.1529   -6.6473    0.0000 C   0  0  0  0  0  0  0  0  0  0  0  0
  1  2  1  0  0  0  0
  1  3  1  0  0  0  0
  2  4  1  0  0  0  0
  3  5  1  0  0  0  0
  4  6  1  0  0  0  0
  5  6  1  0  0  0  0
  1  7  1  6  0  0  0
  2  8  1  6  0  0  0
  4  9  1  1  0  0  0
  6 10  1  6  0  0  0
  5 11  1  1  0  0  0
 12 11  1  0  0  0  0
 13 14  1  0  0  0  0
 13 15  1  0  0  0  0
 14 16  1  0  0  0  0
 15 17  1  0  0  0  0
 16 18  1  0  0  0  0
 17 18  1  0  0  0  0
 14 19  1  6  0  0  0
 16 20  1  1  0  0  0
 18 21  1  6  0  0  0
 17 22  1  1  0  0  0
 23 22  1  0  0  0  0
 13  8  1  6  0  0  0
 25 24  2  0  0  0  0
 26 24  1  0  0  0  0
 19 24  1  0  0  0  0
M  END
> <ID>
CHEBI:59393

> <NAME>
alpha-D-GlcpNAc-(1->2)-alpha-D-Glcp

> <DEFINITION>
An amino disaccharide consisting of an α-D-glucose residue having an N-acetyl-α-D-glucosaminyl residue attached at the 2-position.

> <STAR>
3

> <SYNONYM>
Salmonella outer core terminal disaccharide; GlcNAcalpha1-2Glcalpha; alpha-D-GlcNAc-(1->2)-alpha-D-Glc; 2-O-(2-acetamido-2-deoxy-alpha-D-glucopyranosyl)-alpha-D-glucopyranose; 2-acetamido-2-deoxy-alpha-D-glucosyl-(1->2)-alpha-D-glucose

> <IUPAC_NAME>
2-acetamido-2-deoxy-alpha-D-glucopyranosyl-(1->2)-alpha-D-glucopyranose

> <FORMULA>
C14H25NO11

> <MASS>
383.34840

> <MONOISOTOPIC_MASS>
383.14276

> <CHARGE>
0

> <SMILES>
CC(=O)N[C@@H]1[C@@H](O)[C@H](O)[C@@H](CO)O[C@@H]1O[C@H]1[C@@H](O)O[C@H](CO)[C@@H](O)[C@@H]1O

> <INCHI>
InChI=1S/C14H25NO11/c1-4(18)15-7-10(21)8(19)6(3-17)25-14(7)26-12-11(22)9(20)5(2-16)24-13(12)23/h5-14,16-17,19-23H,2-3H2,1H3,(H,15,18)/t5-,6-,7-,8-,9-,10-,11+,12-,13+,14-/m1/s1

> <INCHIKEY>
KGSIOYQZUFTKHO-KGVZYZAISA-N

> <BEILSTEIN_REGISTRY_NUMBER>
8364777

> <REAXYS_REGISTRY_NUMBER>
8364777

> <PUBMED_CITATION>
2432013

$$$$

Marvin  06041014292D          

 42 45  0  0  1  0            999 V2000
   13.5818   -8.1366    0.0000 C   0  0  2  0  0  0  0  0  0  0  0  0
   14.2963   -8.5491    0.0000 C   0  0  1  0  0  0  0  0  0  0  0  0
   12.8673   -8.5491    0.0000 O   0  0  0  0  0  0  0  0  0  0  0  0
   14.2963   -9.3741    0.0000 C   0  0  2  0  0  0  0  0  0  0  0  0
   12.8673   -9.3741    0.0000 C   0  0  1  0  0  0  0  0  0  0  0  0
   13.5818   -9.7866    0.0000 C   0  0  2  0  0  0  0  0  0  0  0  0
   15.0108   -8.1366    0.0000 O   0  0  0  0  0  0  0  0  0  0  0  0
   15.0107   -9.7867    0.0000 O   0  0  0  0  0  0  0  0  0  0  0  0
   13.5817  -10.6116    0.0000 O   0  0  0  0  0  0  0  0  0  0  0  0
   12.1528   -9.7866    0.0000 C   0  0  0  0  0  0  0  0  0  0  0  0
   12.1528  -10.6116    0.0000 O   0  0  0  0  0  0  0  0  0  0  0  0
   13.5818   -7.3116    0.0000 O   0  0  0  0  0  0  0  0  0  0  0  0
   14.2963   -6.0741    0.0000 C   0  0  2  0  0  0  0  0  0  0  0  0
   13.5819   -6.4865    0.0000 C   0  0  2  0  0  0  0  0  0  0  0  0
   14.2963   -5.2490    0.0000 O   0  0  0  0  0  0  0  0  0  0  0  0
   12.8674   -6.0740    0.0000 C   0  0  2  0  0  0  0  0  0  0  0  0
   13.5819   -4.8365    0.0000 C   0  0  1  0  0  0  0  0  0  0  0  0
   12.8674   -5.2490    0.0000 C   0  0  1  0  0  0  0  0  0  0  0  0
   12.1529   -6.4865    0.0000 O   0  0  0  0  0  0  0  0  0  0  0  0
   12.1529   -4.8365    0.0000 O   0  0  0  0  0  0  0  0  0  0  0  0
   13.5819   -4.0115    0.0000 C   0  0  0  0  0  0  0  0  0  0  0  0
   12.8674   -3.5990    0.0000 O   0  0  0  0  0  0  0  0  0  0  0  0
   15.0108   -6.4866    0.0000 O   0  0  0  0  0  0  0  0  0  0  0  0
   17.1541   -5.2490    0.0000 C   0  0  1  0  0  0  0  0  0  0  0  0
   17.1541   -6.0741    0.0000 C   0  0  1  0  0  0  0  0  0  0  0  0
   16.4397   -4.8365    0.0000 O   0  0  0  0  0  0  0  0  0  0  0  0
   16.4397   -6.4866    0.0000 C   0  0  1  0  0  0  0  0  0  0  0  0
   15.7253   -5.2490    0.0000 C   0  0  2  0  0  0  0  0  0  0  0  0
   15.7253   -6.0741    0.0000 C   0  0  2  0  0  0  0  0  0  0  0  0
   17.8687   -4.8365    0.0000 O   0  0  0  0  0  0  0  0  0  0  0  0
   17.8687   -6.4866    0.0000 O   0  0  0  0  0  0  0  0  0  0  0  0
   16.4397   -7.3116    0.0000 O   0  0  0  0  0  0  0  0  0  0  0  0
   15.0108   -4.8365    0.0000 C   0  0  0  0  0  0  0  0  0  0  0  0
   11.4384   -6.8990    0.0000 C   0  0  1  0  0  0  0  0  0  0  0  0
   10.7239   -6.4864    0.0000 O   0  0  0  0  0  0  0  0  0  0  0  0
   10.0094   -6.8990    0.0000 C   0  0  1  0  0  0  0  0  0  0  0  0
   10.7239   -8.1364    0.0000 C   0  0  0  0  0  0  0  0  0  0  0  0
   11.4384   -7.7239    0.0000 C   0  0  1  0  0  0  0  0  0  0  0  0
   10.0094   -7.7239    0.0000 C   0  0  1  0  0  0  0  0  0  0  0  0
    9.2950   -8.1364    0.0000 O   0  0  0  0  0  0  0  0  0  0  0  0
   12.1529   -8.1364    0.0000 O   0  0  0  0  0  0  0  0  0  0  0  0
    9.2950   -6.4865    0.0000 C   0  0  0  0  0  0  0  0  0  0  0  0
  1  2  1  0  0  0  0
  1  3  1  0  0  0  0
  2  4  1  0  0  0  0
  3  5  1  0  0  0  0
  4  6  1  0  0  0  0
  5  6  1  0  0  0  0
  2  7  1  6  0  0  0
  4  8  1  1  0  0  0
  6  9  1  1  0  0  0
  5 10  1  1  0  0  0
 11 10  1  0  0  0  0
  1 12  1  6  0  0  0
 13 14  1  0  0  0  0
 13 15  1  0  0  0  0
 14 16  1  0  0  0  0
 15 17  1  0  0  0  0
 16 18  1  0  0  0  0
 17 18  1  0  0  0  0
 14 12  1  1  0  0  0
 16 19  1  1  0  0  0
 18 20  1  6  0  0  0
 17 21  1  1  0  0  0
 22 21  1  0  0  0  0
 13 23  1  6  0  0  0
 24 25  1  0  0  0  0
 24 26  1  0  0  0  0
 25 27  1  0  0  0  0
 26 28  1  0  0  0  0
 27 29  1  0  0  0  0
 28 29  1  0  0  0  0
 24 30  1  1  0  0  0
 25 31  1  6  0  0  0
 27 32  1  6  0  0  0
 29 23  1  1  0  0  0
 28 33  1  6  0  0  0
 34 19  1  6  0  0  0
 38 34  1  0  0  0  0
 35 34  1  0  0  0  0
 35 36  1  0  0  0  0
 36 39  1  0  0  0  0
 39 37  1  0  0  0  0
 37 38  1  0  0  0  0
 36 42  1  1  0  0  0
 38 41  1  6  0  0  0
 39 40  1  1  0  0  0
M  END
> <ID>
CHEBI:59400

> <NAME>
alpha-D-Galp-(1->2)-[alpha-D-Abep-(1->3)]-alpha-D-Manp-(1->4)-alpha-L-Rhap

> <DEFINITION>
A branched tetrasaccharide consisting of α-D-galactose, α-D-mannose and α-L-rhamnose residues linked sequentially (1→2) and (1→4), to the mannose residue of which is also linked (1→3) an α-D-abequose residue. The structure constitutes a possible epitope of the O-antigen polysaccharide in Salmonella.

> <STAR>
3

> <SYNONYM>
S. thymurium SH 4809 O-PS tetrasaccharide; G(A)MR; alpha-D-abequosyl-(1->3)-[alpha-D-galactosyl-(1->2)]-alpha-D-mannosyl-(1->4)-alpha-L-rhamnose; alpha-D-abequopyranosyl-(1->3)-[alpha-D-galactopyranosyl-(1->2)]-alpha-D-mannopyranosyl-(1->4)-alpha-L-rhamnopyranose; alpha-D-Abep-(1->3)-[alpha-D-Galp-(1->2)]-alpha-D-Manp-(1->4)-alpha-L-Rhap; alpha-D-Abe-(1->3)-[alpha-D-Gal-(1->2)]-alpha-D-Man-(1->4)-alpha-L-Rha; Abealpha1-3(Galalpha1-2)Manalpha1-4Rhaalpha

> <IUPAC_NAME>
3,6-dideoxy-alpha-D-xylo-hexopyranosyl-(1->3)-[alpha-D-galactopyranosyl-(1->2)]-alpha-D-mannopyranosyl-(1->4)-6-deoxy-alpha-L-mannopyranose

> <FORMULA>
C24H42O18

> <MASS>
618.57950

> <MONOISOTOPIC_MASS>
618.23711

> <CHARGE>
0

> <SMILES>
C[C@H]1O[C@H](O[C@H]2[C@H](O)[C@@H](CO)O[C@H](O[C@H]3[C@H](C)O[C@@H](O)[C@H](O)[C@@H]3O)[C@H]2O[C@H]2O[C@H](CO)[C@H](O)[C@H](O)[C@H]2O)[C@H](O)C[C@H]1O

> <INCHI>
InChI=1S/C24H42O18/c1-6-8(27)3-9(28)22(37-6)41-19-13(30)11(5-26)39-24(40-18-7(2)36-21(35)16(33)15(18)32)20(19)42-23-17(34)14(31)12(29)10(4-25)38-23/h6-35H,3-5H2,1-2H3/t6-,7+,8-,9-,10-,11-,12+,13-,14+,15+,16-,17-,18+,19+,20+,21-,22-,23-,24-/m1/s1

> <INCHIKEY>
RVVSYHCMZQYVPI-KWDGXQEQSA-N

> <PUBMED_CITATION>
10640784; 1378926

$$$$

Marvin  05181010512D          

 42 45  0  0  1  0            999 V2000
    4.3450  -14.6461    0.0000 C   0  0  2  0  0  0  0  0  0  0  0  0
    4.3450  -15.4639    0.0000 C   0  0  1  0  0  0  0  0  0  0  0  0
    3.6476  -15.8913    0.0000 C   0  0  0  0  0  0  0  0  0  0  0  0
    2.9253  -15.4868    0.0000 C   0  0  2  0  0  0  0  0  0  0  0  0
    2.9128  -14.6620    0.0000 C   0  0  1  0  0  0  0  0  0  0  0  0
    2.2029  -14.2645    0.0000 C   0  0  0  0  0  0  0  0  0  0  0  0
    5.0797  -15.8754    0.0000 O   0  0  0  0  0  0  0  0  0  0  0  0
    2.2154  -15.9073    0.0000 O   0  0  0  0  0  0  0  0  0  0  0  0
    3.6226  -14.2416    0.0000 O   0  0  0  0  0  0  0  0  0  0  0  0
    5.7712  -12.1664    0.0000 C   0  0  2  0  0  0  0  0  0  0  0  0
    5.7712  -12.9914    0.0000 C   0  0  2  0  0  0  0  0  0  0  0  0
    5.0567  -11.7539    0.0000 O   0  0  0  0  0  0  0  0  0  0  0  0
    5.0567  -13.4039    0.0000 C   0  0  2  0  0  0  0  0  0  0  0  0
    4.3423  -12.1664    0.0000 C   0  0  1  0  0  0  0  0  0  0  0  0
    4.3423  -12.9914    0.0000 C   0  0  1  0  0  0  0  0  0  0  0  0
    6.4857  -11.7539    0.0000 O   0  0  0  0  0  0  0  0  0  0  0  0
    6.4857  -13.4039    0.0000 O   0  0  0  0  0  0  0  0  0  0  0  0
    3.6278  -13.4039    0.0000 O   0  0  0  0  0  0  0  0  0  0  0  0
    3.6278  -11.7539    0.0000 C   0  0  0  0  0  0  0  0  0  0  0  0
    2.9133  -12.1664    0.0000 O   0  0  0  0  0  0  0  0  0  0  0  0
    8.6291  -10.5164    0.0000 C   0  0  1  0  0  0  0  0  0  0  0  0
    8.6291  -11.3414    0.0000 C   0  0  1  0  0  0  0  0  0  0  0  0
    7.9147  -10.1039    0.0000 O   0  0  0  0  0  0  0  0  0  0  0  0
    7.9147  -11.7539    0.0000 C   0  0  1  0  0  0  0  0  0  0  0  0
    7.2002  -10.5164    0.0000 C   0  0  2  0  0  0  0  0  0  0  0  0
    7.2002  -11.3414    0.0000 C   0  0  2  0  0  0  0  0  0  0  0  0
    9.3436  -10.1038    0.0000 O   0  0  0  0  0  0  0  0  0  0  0  0
    9.3436  -11.7539    0.0000 O   0  0  0  0  0  0  0  0  0  0  0  0
    7.9146  -12.5789    0.0000 O   0  0  0  0  0  0  0  0  0  0  0  0
    6.4857  -10.1039    0.0000 C   0  0  0  0  0  0  0  0  0  0  0  0
   10.0582   -8.0413    0.0000 C   0  0  2  0  0  0  0  0  0  0  0  0
   10.0582   -8.8663    0.0000 C   0  0  1  0  0  0  0  0  0  0  0  0
    9.3437   -7.6288    0.0000 O   0  0  0  0  0  0  0  0  0  0  0  0
    9.3437   -9.2788    0.0000 C   0  0  2  0  0  0  0  0  0  0  0  0
    8.6292   -8.0413    0.0000 C   0  0  1  0  0  0  0  0  0  0  0  0
    8.6292   -8.8663    0.0000 C   0  0  2  0  0  0  0  0  0  0  0  0
   10.7727   -7.6288    0.0000 O   0  0  0  0  0  0  0  0  0  0  0  0
   10.7727   -9.2789    0.0000 O   0  0  0  0  0  0  0  0  0  0  0  0
    7.9147   -9.2788    0.0000 O   0  0  0  0  0  0  0  0  0  0  0  0
    7.9147   -7.6288    0.0000 C   0  0  0  0  0  0  0  0  0  0  0  0
    7.2003   -8.0413    0.0000 O   0  0  0  0  0  0  0  0  0  0  0  0
    5.0567  -14.2289    0.0000 O   0  0  0  0  0  0  0  0  0  0  0  0
  2  1  1  0  0  0  0
  9  1  1  0  0  0  0
  2  7  1  6  0  0  0
  3  2  1  0  0  0  0
  4  3  1  0  0  0  0
  4  8  1  1  0  0  0
  5  4  1  0  0  0  0
  9  5  1  0  0  0  0
  5  6  1  1  0  0  0
 10 11  1  0  0  0  0
 10 12  1  0  0  0  0
 11 13  1  0  0  0  0
 12 14  1  0  0  0  0
 13 15  1  0  0  0  0
 14 15  1  0  0  0  0
 10 16  1  6  0  0  0
 11 17  1  1  0  0  0
 13 42  1  1  0  0  0
 15 18  1  6  0  0  0
 14 19  1  1  0  0  0
 20 19  1  0  0  0  0
 21 22  1  0  0  0  0
 21 23  1  0  0  0  0
 22 24  1  0  0  0  0
 23 25  1  0  0  0  0
 24 26  1  0  0  0  0
 25 26  1  0  0  0  0
 21 27  1  1  0  0  0
 22 28  1  6  0  0  0
 24 29  1  6  0  0  0
 26 16  1  1  0  0  0
 25 30  1  6  0  0  0
 31 32  1  0  0  0  0
 31 33  1  0  0  0  0
 32 34  1  0  0  0  0
 33 35  1  0  0  0  0
 34 36  1  0  0  0  0
 35 36  1  0  0  0  0
 31 37  1  6  0  0  0
 32 38  1  6  0  0  0
 34 27  1  1  0  0  0
 36 39  1  1  0  0  0
 35 40  1  1  0  0  0
 41 40  1  0  0  0  0
  1 42  1  6  0  0  0
M  END
> <ID>
CHEBI:59404

> <NAME>
alpha-D-Abep-(1->3)-alpha-D-Manp-(1->4)-alpha-L-Rhap-(1->3)-alpha-D-Galp

> <DEFINITION>
A tetrasaccharide consisting of α-D-abequose, α-D-mannose, α-L-rhamnose and α-D-galactose residues linked sequentially (1→3), (1→4) and (1→3); epitope of the O-antigen polysaccharide in Salmonella.

> <STAR>
3

> <SYNONYM>
AMRG; alpha-D-abequosyl-(1->3)-alpha-D-mannosyl-(1->4)-alpha-L-rhamnosyl-(1->3)-alpha-D-galactose; alpha-D-abequopyranosyl-(1->3)-alpha-D-mannopyranosyl-(1->4)-alpha-L-rhamnopyranosyl-(1->3)-alpha-D-galactopyranose; alpha-D-Abe-(1->3)-alpha-D-Man-(1->4)-alpha-L-Rha-(1->3)-alpha-D-Gal; Abealpha1-3Manalpha1-4Rhaalpha1-3Galalpha

> <IUPAC_NAME>
3,6-dideoxy-alpha-D-xylo-hexopyranosyl-(1->3)-alpha-D-mannopyranosyl-(1->4)-6-deoxy-alpha-L-mannopyranosyl-(1->3)-alpha-D-galactopyranose

> <FORMULA>
C24H42O18

> <MASS>
618.57950

> <MONOISOTOPIC_MASS>
618.23711

> <CHARGE>
0

> <SMILES>
C[C@H]1O[C@H](O[C@H]2[C@H](O)[C@@H](CO)O[C@H](O[C@H]3[C@H](C)O[C@@H](O[C@@H]4[C@@H](O)[C@@H](O)O[C@H](CO)[C@@H]4O)[C@H](O)[C@@H]3O)[C@H]2O)[C@H](O)C[C@H]1O

> <INCHI>
InChI=1S/C24H42O18/c1-6-8(27)3-9(28)22(36-6)41-20-13(30)11(5-26)39-24(17(20)34)40-18-7(2)37-23(15(32)14(18)31)42-19-12(29)10(4-25)38-21(35)16(19)33/h6-35H,3-5H2,1-2H3/t6-,7+,8-,9-,10-,11-,12+,13-,14+,15-,16-,17+,18+,19+,20+,21+,22-,23+,24-/m1/s1

> <INCHIKEY>
KBKKKSLORYFXSB-QISORLBUSA-N

> <PUBMED_CITATION>
1378926

$$$$

Marvin  05181011252D          

 37 38  0  0  1  0            999 V2000
    8.0842  -14.6323    0.0000 C   0  0  2  0  0  0  0  0  0  0  0  0
    8.7986  -14.2198    0.0000 C   0  0  0  0  0  0  0  0  0  0  0  0
    8.7986  -13.3948    0.0000 O   0  0  0  0  0  0  0  0  0  0  0  0
    8.0842  -15.4573    0.0000 C   0  0  1  0  0  0  0  0  0  0  0  0
    7.3697  -14.2198    0.0000 N   0  0  0  0  0  0  0  0  0  0  0  0
    9.5131  -14.6323    0.0000 O   0  0  0  0  0  0  0  0  0  0  0  0
    7.3697  -15.8698    0.0000 C   0  0  0  0  0  0  0  0  0  0  0  0
    8.7986  -15.8698    0.0000 O   0  0  0  0  0  0  0  0  0  0  0  0
    5.2262  -12.9823    0.0000 C   0  0  2  0  0  0  0  0  0  0  0  0
    4.5117  -13.3948    0.0000 C   0  0  1  0  0  0  0  0  0  0  0  0
    5.9407  -13.3948    0.0000 O   0  0  0  0  0  0  0  0  0  0  0  0
    4.5117  -14.2198    0.0000 C   0  0  2  0  0  0  0  0  0  0  0  0
    5.9407  -14.2198    0.0000 C   0  0  1  0  0  0  0  0  0  0  0  0
    5.2262  -14.6323    0.0000 C   0  0  2  0  0  0  0  0  0  0  0  0
    5.2262  -12.1573    0.0000 O   0  0  0  0  0  0  0  0  0  0  0  0
    3.7973  -12.9823    0.0000 O   0  0  0  0  0  0  0  0  0  0  0  0
    3.7973  -14.6323    0.0000 O   0  0  0  0  0  0  0  0  0  0  0  0
    5.2262  -15.4573    0.0000 O   0  0  0  0  0  0  0  0  0  0  0  0
    6.6552  -14.6323    0.0000 C   0  0  0  0  0  0  0  0  0  0  0  0
    5.9408  -10.0947    0.0000 C   0  0  1  0  0  0  0  0  0  0  0  0
    5.9408  -10.9197    0.0000 C   0  0  1  0  0  0  0  0  0  0  0  0
    5.2263   -9.6822    0.0000 O   0  0  0  0  0  0  0  0  0  0  0  0
    5.2263  -11.3323    0.0000 C   0  0  2  0  0  0  0  0  0  0  0  0
    4.5118  -10.0947    0.0000 C   0  0  1  0  0  0  0  0  0  0  0  0
    4.5118  -10.9197    0.0000 C   0  0  2  0  0  0  0  0  0  0  0  0
    6.6553   -9.6822    0.0000 O   0  0  0  0  0  0  0  0  0  0  0  0
    6.6553  -11.3323    0.0000 N   0  0  0  0  0  0  0  0  0  0  0  0
    3.7973  -11.3323    0.0000 O   0  0  0  0  0  0  0  0  0  0  0  0
    3.7973   -9.6822    0.0000 C   0  0  0  0  0  0  0  0  0  0  0  0
    3.0829  -10.0948    0.0000 O   0  0  0  0  0  0  0  0  0  0  0  0
    7.3697  -10.9197    0.0000 C   0  0  0  0  0  0  0  0  0  0  0  0
    7.3697  -10.0947    0.0000 O   0  0  0  0  0  0  0  0  0  0  0  0
    8.0842  -11.3323    0.0000 C   0  0  0  0  0  0  0  0  0  0  0  0
    3.0828  -14.2198    0.0000 C   0  0  0  0  0  0  0  0  0  0  0  0
    3.0828  -13.3948    0.0000 O   0  0  0  0  0  0  0  0  0  0  0  0
    2.3683  -14.6323    0.0000 C   0  0  0  0  0  0  0  0  0  0  0  0
    6.6552  -15.4573    0.0000 O   0  0  0  0  0  0  0  0  0  0  0  0
  2  1  1  0  0  0  0
  4  1  1  0  0  0  0
  1  5  1  6  0  0  0
  3  2  2  0  0  0  0
  6  2  1  0  0  0  0
  4  7  1  0  0  0  0
  4  8  1  6  0  0  0
  9 10  1  0  0  0  0
  9 11  1  0  0  0  0
 10 12  1  0  0  0  0
 11 13  1  0  0  0  0
 12 14  1  0  0  0  0
 13 14  1  0  0  0  0
  9 15  1  1  0  0  0
 10 16  1  1  0  0  0
 12 17  1  6  0  0  0
 14 18  1  6  0  0  0
 13 19  1  6  0  0  0
  5 19  1  0  0  0  0
 20 21  1  0  0  0  0
 20 22  1  0  0  0  0
 21 23  1  0  0  0  0
 22 24  1  0  0  0  0
 23 25  1  0  0  0  0
 24 25  1  0  0  0  0
 20 26  1  1  0  0  0
 21 27  1  6  0  0  0
 23 15  1  1  0  0  0
 25 28  1  1  0  0  0
 24 29  1  1  0  0  0
 30 29  1  0  0  0  0
 32 31  2  0  0  0  0
 27 31  1  0  0  0  0
 33 31  1  0  0  0  0
 35 34  2  0  0  0  0
 17 34  1  0  0  0  0
 36 34  1  0  0  0  0
 19 37  2  0  0  0  0
M  END
> <ID>
CHEBI:59415

> <NAME>
L-Thr-(N->6)-alpha-D-Galp6d3OAc-(1->3)-beta-D-GalpNAc

> <DEFINITION>
An L-threonine derivative in which L-threonine is linked via its nitrogen to C-6 of the non-reducing-end galactose residue of 3-O-acetyl-α-D-galacto-hexodialdo-1,5-pyranosyl-(1→3)-N-acetyl-acetamido-2-deoxy-β-D-galactosamine; an important threonine-containing epitope of the Proteus penneri O-specific polysaccharide.

> <STAR>
3

> <SYNONYM>
L-Thr-6-alpha-D-GalpA-3-OAc-(1->3)-beta-D-GalpNAc; L-Thr-6-alpha-D-GalA-3-OAc-(1->3)-beta-D-Gal-NAc

> <IUPAC_NAME>
3-(3-O-acetyl-6-deoxy-6-threonino-alpha-D-galactopyranuronosyl)-2-acetamido-2-deoxy-alpha-D-galactopyranose

> <FORMULA>
C20H32N2O15

> <MASS>
540.47250

> <MONOISOTOPIC_MASS>
540.18027

> <CHARGE>
0

> <SMILES>
C[C@@H](O)[C@H](NC(=O)[C@H]1O[C@H](O[C@H]2[C@@H](O)[C@@H](CO)O[C@@H](O)[C@@H]2NC(C)=O)[C@H](O)[C@@H](OC(C)=O)[C@H]1O)C(O)=O

> <INCHI>
InChI=1S/C20H32N2O15/c1-5(24)9(18(31)32)22-17(30)16-12(28)15(34-7(3)26)13(29)20(37-16)36-14-10(21-6(2)25)19(33)35-8(4-23)11(14)27/h5,8-16,19-20,23-24,27-29,33H,4H2,1-3H3,(H,21,25)(H,22,30)(H,31,32)/t5-,8-,9+,10-,11+,12-,13-,14-,15+,16+,19-,20+/m1/s1

> <INCHIKEY>
YPMQJSYGGULWOU-MDGYNGSPSA-N

> <PUBMED_CITATION>
7541754

$$$$

Marvin  05111016222D          

 14 14  0  0  1  0            999 V2000
   12.0071   -7.1770    0.0000 C   0  0  1  0  0  0  0  0  0  0  0  0
   12.0071   -8.0021    0.0000 C   0  0  1  0  0  0  0  0  0  0  0  0
   11.2927   -6.7645    0.0000 O   0  0  0  0  0  0  0  0  0  0  0  0
   11.2927   -8.4146    0.0000 C   0  0  1  0  0  0  0  0  0  0  0  0
   10.5783   -7.1770    0.0000 C   0  0  2  0  0  0  0  0  0  0  0  0
   10.5783   -8.0021    0.0000 C   0  0  2  0  0  0  0  0  0  0  0  0
   12.7216   -6.7645    0.0000 O   0  0  0  0  0  0  0  0  0  0  0  0
   12.7216   -8.4146    0.0000 O   0  0  0  0  0  0  0  0  0  0  0  0
   11.2927   -9.2395    0.0000 O   0  0  0  0  0  0  0  0  0  0  0  0
    9.8638   -8.4146    0.0000 O   0  0  0  0  0  0  0  0  0  0  0  0
    9.8638   -6.7645    0.0000 C   0  0  0  0  0  0  0  0  0  0  0  0
   13.4361   -8.0021    0.0000 C   0  0  0  0  0  0  0  0  0  0  0  0
   13.4361   -7.1771    0.0000 O   0  0  0  0  0  0  0  0  0  0  0  0
   14.1506   -8.4145    0.0000 C   0  0  0  0  0  0  0  0  0  0  0  0
  1  2  1  0  0  0  0
  1  3  1  0  0  0  0
  2  4  1  0  0  0  0
  3  5  1  0  0  0  0
  4  6  1  0  0  0  0
  5  6  1  0  0  0  0
  1  7  1  1  0  0  0
  2  8  1  6  0  0  0
  4  9  1  6  0  0  0
  6 10  1  1  0  0  0
  5 11  1  6  0  0  0
 13 12  2  0  0  0  0
 14 12  1  0  0  0  0
  8 12  1  0  0  0  0
M  END
> <ID>
CHEBI:59422

> <NAME>
2-O-acetyl-alpha-L-rhamnose

> <DEFINITION>
A monosaccharide derivative that is the 2-O-acetyl derivative of α-L-rhamnose.

> <STAR>
3

> <SYNONYM>
alpha-L-Rhap2Ac; 2-O-acetyl alpha-L-Rhap; 2-O-acetyl alpha-L-rhamnose

> <IUPAC_NAME>
2-O-acetyl-alpha-L-rhamnopyranose; 2-O-acetyl-6-deoxy-alpha-L-mannopyranose

> <FORMULA>
C8H14O6

> <MASS>
206.19320

> <MONOISOTOPIC_MASS>
206.07904

> <CHARGE>
0

> <SMILES>
C[C@@H]1O[C@@H](O)[C@H](OC(C)=O)[C@H](O)[C@H]1O

> <INCHI>
InChI=1S/C8H14O6/c1-3-5(10)6(11)7(8(12)13-3)14-4(2)9/h3,5-8,10-12H,1-2H3/t3-,5-,6+,7+,8+/m0/s1

> <INCHIKEY>
JAMRSAWASNAFCK-IMSDGWMTSA-N

> <PUBMED_CITATION>
2424840

$$$$

Marvin  05111016482D          

 45 48  0  0  1  0            999 V2000
   12.0070   -7.1769    0.0000 C   0  0  1  0  0  0  0  0  0  0  0  0
   12.0070   -8.0020    0.0000 C   0  0  1  0  0  0  0  0  0  0  0  0
   11.2926   -6.7644    0.0000 O   0  0  0  0  0  0  0  0  0  0  0  0
   11.2926   -8.4145    0.0000 C   0  0  1  0  0  0  0  0  0  0  0  0
   10.5782   -7.1769    0.0000 C   0  0  2  0  0  0  0  0  0  0  0  0
   10.5782   -8.0020    0.0000 C   0  0  2  0  0  0  0  0  0  0  0  0
   12.7215   -6.7644    0.0000 O   0  0  0  0  0  0  0  0  0  0  0  0
   12.7215   -8.4145    0.0000 O   0  0  0  0  0  0  0  0  0  0  0  0
   11.2926   -9.2394    0.0000 O   0  0  0  0  0  0  0  0  0  0  0  0
    9.8637   -8.4145    0.0000 O   0  0  0  0  0  0  0  0  0  0  0  0
    9.8637   -6.7644    0.0000 C   0  0  0  0  0  0  0  0  0  0  0  0
   13.4360   -8.0020    0.0000 C   0  0  0  0  0  0  0  0  0  0  0  0
   13.4360   -7.1770    0.0000 O   0  0  0  0  0  0  0  0  0  0  0  0
   14.1505   -8.4144    0.0000 C   0  0  0  0  0  0  0  0  0  0  0  0
   11.2926  -10.8896    0.0000 O   0  0  0  0  0  0  0  0  0  0  0  0
   11.2925  -11.7146    0.0000 C   0  0  1  0  0  0  0  0  0  0  0  0
   12.0070  -12.1272    0.0000 C   0  0  1  0  0  0  0  0  0  0  0  0
   10.5780  -12.1271    0.0000 O   0  0  0  0  0  0  0  0  0  0  0  0
   12.0070  -12.9522    0.0000 C   0  0  1  0  0  0  0  0  0  0  0  0
   10.5781  -12.9519    0.0000 C   0  0  2  0  0  0  0  0  0  0  0  0
   11.2926  -13.3645    0.0000 C   0  0  2  0  0  0  0  0  0  0  0  0
   12.7216  -11.7147    0.0000 O   0  0  0  0  0  0  0  0  0  0  0  0
   12.7214  -13.3647    0.0000 O   0  0  0  0  0  0  0  0  0  0  0  0
   11.2926  -14.1895    0.0000 O   0  0  0  0  0  0  0  0  0  0  0  0
    9.8635  -13.3644    0.0000 C   0  0  0  0  0  0  0  0  0  0  0  0
   12.7214  -14.1896    0.0000 C   0  0  2  0  0  0  0  0  0  0  0  0
   13.4359  -14.6022    0.0000 C   0  0  1  0  0  0  0  0  0  0  0  0
   12.0069  -14.6023    0.0000 O   0  0  0  0  0  0  0  0  0  0  0  0
   13.4358  -15.4273    0.0000 C   0  0  2  0  0  0  0  0  0  0  0  0
   12.0069  -15.4272    0.0000 C   0  0  1  0  0  0  0  0  0  0  0  0
   12.7214  -15.8397    0.0000 C   0  0  1  0  0  0  0  0  0  0  0  0
   14.1504  -14.1898    0.0000 O   0  0  0  0  0  0  0  0  0  0  0  0
   14.1502  -15.8398    0.0000 O   0  0  0  0  0  0  0  0  0  0  0  0
   12.7213  -16.6648    0.0000 O   0  0  0  0  0  0  0  0  0  0  0  0
   11.2924  -15.8397    0.0000 C   0  0  0  0  0  0  0  0  0  0  0  0
   11.2923  -16.6647    0.0000 O   0  0  0  0  0  0  0  0  0  0  0  0
   10.5782   -9.6519    0.0000 C   0  0  1  0  0  0  0  0  0  0  0  0
   10.5782  -10.4771    0.0000 C   0  0  1  0  0  0  0  0  0  0  0  0
    9.8637   -9.2394    0.0000 O   0  0  0  0  0  0  0  0  0  0  0  0
    9.8637  -10.8896    0.0000 C   0  0  1  0  0  0  0  0  0  0  0  0
    9.1492   -9.6519    0.0000 C   0  0  2  0  0  0  0  0  0  0  0  0
    9.1492  -10.4771    0.0000 C   0  0  2  0  0  0  0  0  0  0  0  0
    8.4348  -10.8896    0.0000 O   0  0  0  0  0  0  0  0  0  0  0  0
    8.4348   -9.2394    0.0000 C   0  0  0  0  0  0  0  0  0  0  0  0
    9.8637  -11.7146    0.0000 O   0  0  0  0  0  0  0  0  0  0  0  0
  1  2  1  0  0  0  0
  1  3  1  0  0  0  0
  2  4  1  0  0  0  0
  3  5  1  0  0  0  0
  4  6  1  0  0  0  0
  5  6  1  0  0  0  0
  1  7  1  1  0  0  0
  2  8  1  6  0  0  0
  4  9  1  6  0  0  0
  6 10  1  1  0  0  0
  5 11  1  6  0  0  0
 13 12  2  0  0  0  0
 14 12  1  0  0  0  0
  8 12  1  0  0  0  0
 16 17  1  0  0  0  0
 16 18  1  0  0  0  0
 17 19  1  0  0  0  0
 18 20  1  0  0  0  0
 19 21  1  0  0  0  0
 20 21  1  0  0  0  0
 16 15  1  1  0  0  0
 17 22  1  6  0  0  0
 19 23  1  6  0  0  0
 21 24  1  1  0  0  0
 20 25  1  6  0  0  0
 26 27  1  0  0  0  0
 26 28  1  0  0  0  0
 27 29  1  0  0  0  0
 28 30  1  0  0  0  0
 29 31  1  0  0  0  0
 30 31  1  0  0  0  0
 26 23  1  6  0  0  0
 27 32  1  6  0  0  0
 29 33  1  1  0  0  0
 31 34  1  6  0  0  0
 30 35  1  1  0  0  0
 36 35  1  0  0  0  0
 37 38  1  0  0  0  0
 37 39  1  0  0  0  0
 38 40  1  0  0  0  0
 39 41  1  0  0  0  0
 40 42  1  0  0  0  0
 41 42  1  0  0  0  0
 37  9  1  1  0  0  0
 38 15  1  6  0  0  0
 42 43  1  1  0  0  0
 41 44  1  6  0  0  0
 40 45  1  6  0  0  0
M  END
> <ID>
CHEBI:59425

> <NAME>
alpha-D-Glcp-(1->3)-alpha-L-Rhap-(1->2)-alpha-L-Rhap-(1->3)-alpha-L-Rhap2Ac

> <DEFINITION>
A linear tetrasaccharide derivative consisting of an α-D-glucosyl residue, two α-L-rhamnosyl residues and a 2-O-acetyl-α-L-rhamnose at the reducing end.

> <STAR>
3

> <SYNONYM>
Glcalpha1-3Rhaalpha1-2Rhaalpha1-3Rha2Ac; alpha-D-glucosyl-(1->3)-alpha-L-rhamnosyl-(1->2)-alpha-L-rhamnosyl-(1->3)-2-O-acetyl-alpha-L-rhamnose; alpha-D-glucopyranosyl-(1->3)-6-deoxy-alpha-L-mannopyranosyl-(1->2)-6-deoxy-alpha-L-mannopyranosyl-(1->3)-2-O-acetyl-6-deoxy-alpha-L-mannopyranose; alpha-D-Glc-(1->3)-alpha-L-Rha-(1->2)-alpha-L-Rha-(1->3)-alpha-L-Rha2Ac

> <IUPAC_NAME>
alpha-D-glucopyranosyl-(1->3)-alpha-L-rhamnopyranosyl-(1->2)-alpha-L-rhamnopyranosyl-(1->3)-2-O-acetyl-alpha-L-rhamnopyranose

> <FORMULA>
C26H44O19

> <MASS>
660.61620

> <MONOISOTOPIC_MASS>
660.24768

> <CHARGE>
0

> <SMILES>
C[C@@H]1O[C@@H](O[C@@H]2[C@@H](O)[C@H](C)O[C@@H](O)[C@@H]2OC(C)=O)[C@H](O[C@@H]2O[C@@H](C)[C@H](O)[C@@H](O[C@H]3O[C@H](CO)[C@@H](O)[C@H](O)[C@H]3O)[C@H]2O)[C@H](O)[C@H]1O

> <INCHI>
InChI=1S/C26H44O19/c1-6-11(29)16(34)21(26(40-6)44-20-13(31)7(2)38-23(37)22(20)41-9(4)28)45-25-18(36)19(12(30)8(3)39-25)43-24-17(35)15(33)14(32)10(5-27)42-24/h6-8,10-27,29-37H,5H2,1-4H3/t6-,7-,8-,10+,11-,12-,13-,14+,15-,16+,17+,18+,19+,20+,21+,22+,23+,24+,25-,26-/m0/s1

> <INCHIKEY>
ZSEFDBUOLGSDLT-OBUAVMKQSA-N

> <PUBMED_CITATION>
2424840

$$$$

Marvin  05121016192D          

 46 49  0  0  1  0            999 V2000
   14.9576  -16.2714    0.0000 C   0  0  0  0  0  0  0  0  0  0  0  0
   14.9576  -17.0964    0.0000 C   0  0  1  0  0  0  0  0  0  0  0  0
   14.2430  -15.8589    0.0000 O   0  0  0  0  0  0  0  0  0  0  0  0
   14.2430  -17.5089    0.0000 C   0  0  2  0  0  0  0  0  0  0  0  0
   13.5286  -16.2714    0.0000 C   0  0  1  0  0  0  0  0  0  0  0  0
   13.5286  -17.0964    0.0000 C   0  0  1  0  0  0  0  0  0  0  0  0
   15.6720  -15.8589    0.0000 O   0  0  0  0  0  0  0  0  0  0  0  0
   15.6720  -17.5089    0.0000 N   0  0  0  0  0  0  0  0  0  0  0  0
   14.2430  -18.3339    0.0000 O   0  0  0  0  0  0  0  0  0  0  0  0
   12.8141  -17.5089    0.0000 O   0  0  0  0  0  0  0  0  0  0  0  0
   12.8141  -15.8589    0.0000 C   0  0  0  0  0  0  0  0  0  0  0  0
   16.3865  -17.0964    0.0000 C   0  0  0  0  0  0  0  0  0  0  0  0
   17.1009  -17.5089    0.0000 C   0  0  0  0  0  0  0  0  0  0  0  0
   16.3865  -16.2714    0.0000 O   0  0  0  0  0  0  0  0  0  0  0  0
   12.8141  -15.0339    0.0000 O   0  0  0  0  0  0  0  0  0  0  0  0
   12.0996  -17.0964    0.0000 C   0  0  1  0  0  0  0  0  0  0  0  0
   11.3852  -17.5089    0.0000 C   0  0  2  0  0  0  0  0  0  0  0  0
   12.0996  -16.2714    0.0000 O   0  0  0  0  0  0  0  0  0  0  0  0
   10.6707  -17.0963    0.0000 C   0  0  1  0  0  0  0  0  0  0  0  0
   11.3852  -15.8589    0.0000 C   0  0  2  0  0  0  0  0  0  0  0  0
   10.6707  -16.2713    0.0000 C   0  0  1  0  0  0  0  0  0  0  0  0
   11.3851  -18.3339    0.0000 O   0  0  0  0  0  0  0  0  0  0  0  0
    9.9563  -17.5087    0.0000 O   0  0  0  0  0  0  0  0  0  0  0  0
    9.9563  -15.8588    0.0000 O   0  0  0  0  0  0  0  0  0  0  0  0
   11.3852  -15.0339    0.0000 C   0  0  0  0  0  0  0  0  0  0  0  0
   13.8305  -19.0484    0.0000 C   0  0  1  0  0  0  0  0  0  0  0  0
   14.2430  -19.7628    0.0000 C   0  0  1  0  0  0  0  0  0  0  0  0
   13.0055  -19.0483    0.0000 O   0  0  0  0  0  0  0  0  0  0  0  0
   13.8304  -20.4773    0.0000 C   0  0  2  0  0  0  0  0  0  0  0  0
   12.5930  -19.7628    0.0000 C   0  0  1  0  0  0  0  0  0  0  0  0
   13.0055  -20.4773    0.0000 C   0  0  2  0  0  0  0  0  0  0  0  0
   15.0680  -19.7628    0.0000 O   0  0  0  0  0  0  0  0  0  0  0  0
   14.2429  -21.1918    0.0000 O   0  0  0  0  0  0  0  0  0  0  0  0
   12.5929  -21.1918    0.0000 O   0  0  0  0  0  0  0  0  0  0  0  0
   11.7680  -19.7628    0.0000 C   0  0  0  0  0  0  0  0  0  0  0  0
   11.3555  -20.4772    0.0000 O   0  0  0  0  0  0  0  0  0  0  0  0
   15.7824  -20.1754    0.0000 C   0  0  1  0  0  0  0  0  0  0  0  0
   15.7824  -21.0004    0.0000 C   0  0  2  0  0  0  0  0  0  0  0  0
   16.4970  -19.7629    0.0000 O   0  0  0  0  0  0  0  0  0  0  0  0
   16.4970  -21.4129    0.0000 C   0  0  1  0  0  0  0  0  0  0  0  0
   17.2114  -20.1754    0.0000 C   0  0  2  0  0  0  0  0  0  0  0  0
   17.2114  -21.0004    0.0000 C   0  0  1  0  0  0  0  0  0  0  0  0
   15.1574  -21.6316    0.0000 O   0  0  0  0  0  0  0  0  0  0  0  0
   16.4970  -22.2379    0.0000 O   0  0  0  0  0  0  0  0  0  0  0  0
   17.9259  -21.4129    0.0000 O   0  0  0  0  0  0  0  0  0  0  0  0
   17.9259  -19.7629    0.0000 C   0  0  0  0  0  0  0  0  0  0  0  0
  1  2  1  0  0  0  0
  1  3  1  0  0  0  0
  2  4  1  0  0  0  0
  3  5  1  0  0  0  0
  4  6  1  0  0  0  0
  5  6  1  0  0  0  0
  1  7  1  0  0  0  0
  2  8  1  6  0  0  0
  4  9  1  1  0  0  0
  6 10  1  6  0  0  0
  5 11  1  1  0  0  0
  8 12  1  0  0  0  0
 12 13  1  0  0  0  0
 12 14  2  0  0  0  0
 11 15  1  0  0  0  0
 16 17  1  0  0  0  0
 16 18  1  0  0  0  0
 17 19  1  0  0  0  0
 18 20  1  0  0  0  0
 19 21  1  0  0  0  0
 20 21  1  0  0  0  0
 16 10  1  1  0  0  0
 17 22  1  1  0  0  0
 19 23  1  6  0  0  0
 21 24  1  6  0  0  0
 20 25  1  6  0  0  0
 26 27  1  0  0  0  0
 26 28  1  0  0  0  0
 27 29  1  0  0  0  0
 28 30  1  0  0  0  0
 29 31  1  0  0  0  0
 30 31  1  0  0  0  0
 27 32  1  6  0  0  0
 29 33  1  1  0  0  0
 31 34  1  1  0  0  0
 30 35  1  1  0  0  0
 36 35  1  0  0  0  0
 26  9  1  1  0  0  0
 37 38  1  0  0  0  0
 37 39  1  0  0  0  0
 38 40  1  0  0  0  0
 39 41  1  0  0  0  0
 40 42  1  0  0  0  0
 41 42  1  0  0  0  0
 37 32  1  6  0  0  0
 38 43  1  6  0  0  0
 40 44  1  1  0  0  0
 42 45  1  1  0  0  0
 41 46  1  1  0  0  0
M  END
> <ID>
CHEBI:59440

> <NAME>
alpha-L-Fucp-(1->2)-beta-D-Galp-(1->3)-[alpha-L-Fucp-(1->4)]-D-GlcNAc

> <DEFINITION>
An amino tetrasaccharide consisting of N-acetylglucosamine having a fucosyl residue attached at the 4-position via a β-linkage and α-fucosyl-(1→2)-galactosyl residues attached at the 3-position, also via a β-linkage.

> <STAR>
3

> <SYNONYM>
Lewis b antigen; Le(b); Le(b); Fucalpha1-4[Fucalpha1-2Galbeta1-3]GlcNAc; Fucalpha1-4(Fucalpha1-2Galbeta1-3)GlcNAc; Fucalpha1-2Galbeta1-3[Fucalpha1-4]GlcNAc; Fucalpha1-2Galbeta1-3(Fucalpha1-4)GlcNAc; alpha-L-fucosyl-(1->4)-[alpha-L-fucosyl-(1->2)-beta-D-galactosyl-(1->3)]-N-acetyl-D-glucosamine; alpha-L-fucosyl-(1->2)-beta-D-galactosyl-(1->3)-[alpha-L-fucosyl-(1->4)]-N-acetyl-D-glucosamine; alpha-L-Fuc-(1->4)-[alpha-L-Fuc-(1->2)-beta-D-Gal-(1->3)]-D-GlcNAc; alpha-L-Fuc-(1->2)-beta-D-Gal-(1->3)-[alpha-L-Fuc-(1->4)]-D-GlcNAc; alpha-L-Fuc-(1->2)-beta-D-Gal-(1->3)-(alpha-L-Fuc-(1->4))-D-GlcNAc; 6-deoxy-alpha-L-galactopyranosyl-(1->4)-[6-deoxy-alpha-L-galactopyranosyl-(1->2)-beta-D-galactopyranosyl-(1->3)]-2-acetamido-2-deoxy-D-glucopyranose

> <IUPAC_NAME>
alpha-L-fucopyranosyl-(1->4)-[alpha-L-fucopyranosyl-(1->2)-beta-D-galactopyranosyl-(1->3)]-2-acetamido-2-deoxy-D-glucopyranose

> <FORMULA>
C26H45NO19

> <MASS>
675.63080

> <MONOISOTOPIC_MASS>
675.25858

> <CHARGE>
0

> <SMILES>
C[C@@H]1O[C@@H](O[C@@H]2[C@@H](O)[C@@H](O)[C@@H](CO)O[C@H]2O[C@@H]2[C@@H](NC(C)=O)C(O)O[C@H](CO)[C@H]2O[C@@H]2O[C@@H](C)[C@@H](O)[C@@H](O)[C@@H]2O)[C@@H](O)[C@H](O)[C@@H]1O

> <INCHI>
InChI=1S/C26H45NO19/c1-6-12(31)15(34)18(37)24(40-6)44-20-10(5-29)42-23(39)11(27-8(3)30)21(20)45-26-22(17(36)14(33)9(4-28)43-26)46-25-19(38)16(35)13(32)7(2)41-25/h6-7,9-26,28-29,31-39H,4-5H2,1-3H3,(H,27,30)/t6-,7-,9+,10+,11+,12+,13+,14-,15+,16+,17-,18-,19-,20+,21+,22+,23?,24-,25-,26-/m0/s1

> <INCHIKEY>
OXNGKCPRVRBHPO-VIXGDSECSA-N

> <BEILSTEIN_REGISTRY_NUMBER>
11895625

> <REAXYS_REGISTRY_NUMBER>
19536489

> <PUBMED_CITATION>
10992504; 16133831; 23724317; 6083446

$$$$

Marvin  05121016212D          

 46 49  0  0  1  0            999 V2000
   14.9576  -16.2714    0.0000 C   0  0  1  0  0  0  0  0  0  0  0  0
   14.9576  -17.0964    0.0000 C   0  0  1  0  0  0  0  0  0  0  0  0
   14.2430  -15.8589    0.0000 O   0  0  0  0  0  0  0  0  0  0  0  0
   14.2430  -17.5089    0.0000 C   0  0  2  0  0  0  0  0  0  0  0  0
   13.5286  -16.2714    0.0000 C   0  0  1  0  0  0  0  0  0  0  0  0
   13.5286  -17.0964    0.0000 C   0  0  1  0  0  0  0  0  0  0  0  0
   15.6720  -15.8589    0.0000 O   0  0  0  0  0  0  0  0  0  0  0  0
   15.6720  -17.5089    0.0000 N   0  0  0  0  0  0  0  0  0  0  0  0
   14.2430  -18.3339    0.0000 O   0  0  0  0  0  0  0  0  0  0  0  0
   12.8141  -17.5089    0.0000 O   0  0  0  0  0  0  0  0  0  0  0  0
   12.8141  -15.8589    0.0000 C   0  0  0  0  0  0  0  0  0  0  0  0
   16.3865  -17.0964    0.0000 C   0  0  0  0  0  0  0  0  0  0  0  0
   17.1009  -17.5089    0.0000 C   0  0  0  0  0  0  0  0  0  0  0  0
   16.3865  -16.2714    0.0000 O   0  0  0  0  0  0  0  0  0  0  0  0
   12.8141  -15.0339    0.0000 O   0  0  0  0  0  0  0  0  0  0  0  0
   12.0996  -17.0964    0.0000 C   0  0  1  0  0  0  0  0  0  0  0  0
   11.3852  -17.5089    0.0000 C   0  0  2  0  0  0  0  0  0  0  0  0
   12.0996  -16.2714    0.0000 O   0  0  0  0  0  0  0  0  0  0  0  0
   10.6707  -17.0963    0.0000 C   0  0  1  0  0  0  0  0  0  0  0  0
   11.3852  -15.8589    0.0000 C   0  0  2  0  0  0  0  0  0  0  0  0
   10.6707  -16.2713    0.0000 C   0  0  1  0  0  0  0  0  0  0  0  0
   11.3851  -18.3339    0.0000 O   0  0  0  0  0  0  0  0  0  0  0  0
    9.9563  -17.5087    0.0000 O   0  0  0  0  0  0  0  0  0  0  0  0
    9.9563  -15.8588    0.0000 O   0  0  0  0  0  0  0  0  0  0  0  0
   11.3852  -15.0339    0.0000 C   0  0  0  0  0  0  0  0  0  0  0  0
   13.8305  -19.0484    0.0000 C   0  0  1  0  0  0  0  0  0  0  0  0
   14.2430  -19.7628    0.0000 C   0  0  1  0  0  0  0  0  0  0  0  0
   13.0055  -19.0483    0.0000 O   0  0  0  0  0  0  0  0  0  0  0  0
   13.8304  -20.4773    0.0000 C   0  0  2  0  0  0  0  0  0  0  0  0
   12.5930  -19.7628    0.0000 C   0  0  1  0  0  0  0  0  0  0  0  0
   13.0055  -20.4773    0.0000 C   0  0  2  0  0  0  0  0  0  0  0  0
   15.0680  -19.7628    0.0000 O   0  0  0  0  0  0  0  0  0  0  0  0
   14.2429  -21.1918    0.0000 O   0  0  0  0  0  0  0  0  0  0  0  0
   12.5929  -21.1918    0.0000 O   0  0  0  0  0  0  0  0  0  0  0  0
   11.7680  -19.7628    0.0000 C   0  0  0  0  0  0  0  0  0  0  0  0
   11.3555  -20.4772    0.0000 O   0  0  0  0  0  0  0  0  0  0  0  0
   15.7824  -20.1754    0.0000 C   0  0  1  0  0  0  0  0  0  0  0  0
   15.7824  -21.0004    0.0000 C   0  0  2  0  0  0  0  0  0  0  0  0
   16.4970  -19.7629    0.0000 O   0  0  0  0  0  0  0  0  0  0  0  0
   16.4970  -21.4129    0.0000 C   0  0  1  0  0  0  0  0  0  0  0  0
   17.2114  -20.1754    0.0000 C   0  0  2  0  0  0  0  0  0  0  0  0
   17.2114  -21.0004    0.0000 C   0  0  1  0  0  0  0  0  0  0  0  0
   15.1574  -21.6316    0.0000 O   0  0  0  0  0  0  0  0  0  0  0  0
   16.4970  -22.2379    0.0000 O   0  0  0  0  0  0  0  0  0  0  0  0
   17.9259  -21.4129    0.0000 O   0  0  0  0  0  0  0  0  0  0  0  0
   17.9259  -19.7629    0.0000 C   0  0  0  0  0  0  0  0  0  0  0  0
  1  2  1  0  0  0  0
  1  3  1  0  0  0  0
  2  4  1  0  0  0  0
  3  5  1  0  0  0  0
  4  6  1  0  0  0  0
  5  6  1  0  0  0  0
  1  7  1  1  0  0  0
  2  8  1  6  0  0  0
  4  9  1  1  0  0  0
  6 10  1  6  0  0  0
  5 11  1  1  0  0  0
  8 12  1  0  0  0  0
 12 13  1  0  0  0  0
 12 14  2  0  0  0  0
 11 15  1  0  0  0  0
 16 17  1  0  0  0  0
 16 18  1  0  0  0  0
 17 19  1  0  0  0  0
 18 20  1  0  0  0  0
 19 21  1  0  0  0  0
 20 21  1  0  0  0  0
 16 10  1  1  0  0  0
 17 22  1  1  0  0  0
 19 23  1  6  0  0  0
 21 24  1  6  0  0  0
 20 25  1  6  0  0  0
 26 27  1  0  0  0  0
 26 28  1  0  0  0  0
 27 29  1  0  0  0  0
 28 30  1  0  0  0  0
 29 31  1  0  0  0  0
 30 31  1  0  0  0  0
 27 32  1  6  0  0  0
 29 33  1  1  0  0  0
 31 34  1  1  0  0  0
 30 35  1  1  0  0  0
 36 35  1  0  0  0  0
 26  9  1  1  0  0  0
 37 38  1  0  0  0  0
 37 39  1  0  0  0  0
 38 40  1  0  0  0  0
 39 41  1  0  0  0  0
 40 42  1  0  0  0  0
 41 42  1  0  0  0  0
 37 32  1  6  0  0  0
 38 43  1  6  0  0  0
 40 44  1  1  0  0  0
 42 45  1  1  0  0  0
 41 46  1  1  0  0  0
M  END
> <ID>
CHEBI:59441

> <NAME>
alpha-L-Fucp-(1->2)-beta-D-Galp-(1->3)-[alpha-L-Fucp-(1->4)]-beta-D-GlcpNAc

> <DEFINITION>
An α-L-Fucp-(1→2)-β-D-Galp-(1→3)-[α-L-Fucp-(1→4)]-D-GlcNAc where the glucosamine at the reducing end has β-configuration at its anomeric centre.

> <STAR>
3

> <SYNONYM>
Lewis b; Le(b); Fucalpha1-4[Fucalpha1-2Galbeta1-3]GlcNAcbeta-; Fucalpha1-2Galbeta1-3(Fucalpha1-4)GlcNAcbeta; Fuca1-2Galb1-3(Fuca1-4)GlcNAcb; alpha-L-fucosyl-(1->4)-[alpha-L-fucosyl-(1->2)-beta-D-galactosyl-(1->3)]-N-acetyl-beta-D-glucosamine; alpha-L-fucosyl-(1->4)-[alpha-L-fucosyl-(1->2)-beta-D-galactosyl-(1->3)]-2-acetamido-2-deoxy-beta-D-glucose; alpha-L-Fuc-(1->2)-beta-D-Gal-(1->3)-[alpha-L-Fuc-(1->4)]-beta-D-GlcNAc; 6-deoxy-alpha-L-galactopyranosyl-(1->4)-[6-deoxy-alpha-L-galactopyranosyl-(1->2)-beta-D-galactopyranosyl-(1->3)]-2-acetamido-2-deoxy-beta-D-glucopyranose

> <IUPAC_NAME>
alpha-L-fucopyranosyl-(1->4)-[alpha-L-fucopyranosyl-(1->2)-beta-D-galactopyranosyl-(1->3)]-2-acetamido-2-deoxy-beta-D-glucopyranose

> <FORMULA>
C26H45NO19

> <MASS>
675.63080

> <MONOISOTOPIC_MASS>
675.25858

> <CHARGE>
0

> <SMILES>
C[C@@H]1O[C@@H](O[C@@H]2[C@@H](O)[C@@H](O)[C@@H](CO)O[C@H]2O[C@@H]2[C@@H](NC(C)=O)[C@H](O)O[C@H](CO)[C@H]2O[C@@H]2O[C@@H](C)[C@@H](O)[C@@H](O)[C@@H]2O)[C@@H](O)[C@H](O)[C@@H]1O

> <INCHI>
InChI=1S/C26H45NO19/c1-6-12(31)15(34)18(37)24(40-6)44-20-10(5-29)42-23(39)11(27-8(3)30)21(20)45-26-22(17(36)14(33)9(4-28)43-26)46-25-19(38)16(35)13(32)7(2)41-25/h6-7,9-26,28-29,31-39H,4-5H2,1-3H3,(H,27,30)/t6-,7-,9+,10+,11+,12+,13+,14-,15+,16+,17-,18-,19-,20+,21+,22+,23+,24-,25-,26-/m0/s1

> <INCHIKEY>
OXNGKCPRVRBHPO-XLMUYGLTSA-N

> <BEILSTEIN_REGISTRY_NUMBER>
5232607

> <REAXYS_REGISTRY_NUMBER>
5232607

> <PUBMED_CITATION>
19443021; 25568069; 31537530; 8737251

$$$$

Marvin  05131011112D          

 25 26  0  0  1  0            999 V2000
    8.3396   -7.5832    0.0000 O   0  0  0  0  0  0  0  0  0  0  0  0
    7.6251   -7.9957    0.0000 C   0  0  2  0  0  0  0  0  0  0  0  0
    9.0541   -7.9957    0.0000 C   0  0  2  0  0  0  0  0  0  0  0  0
    9.0541   -8.8208    0.0000 C   0  0  2  0  0  0  0  0  0  0  0  0
    8.3396   -9.2333    0.0000 C   0  0  1  0  0  0  0  0  0  0  0  0
    7.6251   -8.8208    0.0000 C   0  0  2  0  0  0  0  0  0  0  0  0
    9.7685   -7.5832    0.0000 O   0  0  0  0  0  0  0  0  0  0  0  0
    9.7685   -9.2333    0.0000 O   0  0  0  0  0  0  0  0  0  0  0  0
    8.3396  -10.0582    0.0000 O   0  0  0  0  0  0  0  0  0  0  0  0
    6.9107   -9.2333    0.0000 O   0  0  0  0  0  0  0  0  0  0  0  0
    6.9106   -7.5832    0.0000 C   0  0  0  0  0  0  0  0  0  0  0  0
    9.7684  -10.0583    0.0000 C   0  0  0  0  0  0  0  0  0  0  0  0
    6.1962   -8.8208    0.0000 C   0  0  0  0  0  0  0  0  0  0  0  0
    5.4818   -9.2333    0.0000 O   0  0  0  0  0  0  0  0  0  0  0  0
    6.1962   -8.1846    0.0000 C   0  0  0  0  0  0  0  0  0  0  0  0
    7.6251  -10.4707    0.0000 C   0  0  2  0  0  0  0  0  0  0  0  0
    7.6251  -11.2957    0.0000 C   0  0  0  0  0  0  0  0  0  0  0  0
    6.9106  -10.0582    0.0000 O   0  0  0  0  0  0  0  0  0  0  0  0
    6.9106  -11.7082    0.0000 C   0  0  2  0  0  0  0  0  0  0  0  0
    6.1961  -10.4707    0.0000 C   0  0  1  0  0  0  0  0  0  0  0  0
    6.1961  -11.2957    0.0000 C   0  0  1  0  0  0  0  0  0  0  0  0
    6.9105  -12.5332    0.0000 O   0  0  0  0  0  0  0  0  0  0  0  0
    5.4816  -11.7082    0.0000 O   0  0  0  0  0  0  0  0  0  0  0  0
    5.4816  -10.0582    0.0000 C   0  0  0  0  0  0  0  0  0  0  0  0
    4.7672  -11.2957    0.0000 C   0  0  0  0  0  0  0  0  0  0  0  0
  2  1  1  0  0  0  0
  3  1  1  0  0  0  0
  3  7  1  1  0  0  0
  3  4  1  0  0  0  0
  4  8  1  1  0  0  0
  4  5  1  0  0  0  0
  5  9  1  6  0  0  0
  5  6  1  0  0  0  0
  6  2  1  0  0  0  0
  6 10  1  6  0  0  0
  2 11  1  6  0  0  0
  8 12  1  0  0  0  0
 14 13  2  0  0  0  0
 15 13  1  0  0  0  0
 10 13  1  0  0  0  0
 17 16  1  0  0  0  0
 18 16  1  0  0  0  0
 19 17  1  0  0  0  0
 20 18  1  0  0  0  0
 21 19  1  0  0  0  0
 21 20  1  0  0  0  0
 16  9  1  6  0  0  0
 19 22  1  1  0  0  0
 21 23  1  6  0  0  0
 20 24  1  1  0  0  0
 23 25  1  0  0  0  0
M  END
> <ID>
CHEBI:59444

> <NAME>
2,6-dideoxy-4-O-methyl-alpha-D-arabino-hexopyranosyl-(1->3)-4-O-acetyl-2-O-methyl-alpha-L-fucopyranose

> <DEFINITION>
A disaccharide derivative consisting of 4-O-acetyl-2-O-methyl-α-L-fucose having a 2,6-dideoxy-4-O-methyl-α-D-arabino-hexosyl residue attached at the 3-position.

> <STAR>
3

> <SYNONYM>
4-O-acetyl-6-deoxy-3-O-(2,6-dideoxy-4-O-methyl-alpha-D-arabino-hexopyranosyl)-2-O-methyl-alpha-L-galactopyranose; 4-O-acetyl-3-O-(2,6-dideoxy-4-O-methyl-alpha-D-arabino-hexopyranosyl)-2-O-methyl-alpha-L-fucopyranose; 2,6-dideoxy-4-O-methyl-alpha-D-arabino-hexopyranosyl-(1->3)-4-O-acetyl-6-deoxy-2-O-methyl-alpha-L-galactopyranose; 2,6-dideoxy-4-O-Me-alpha-D-arabino-Hexp-(1->3)-2-O-Me-4-O-Ac-alpha-L-Fucp

> <IUPAC_NAME>
2,6-dideoxy-4-O-methyl-alpha-D-arabino-hexopyranosyl-(1->3)-4-O-acetyl-2-O-methyl-alpha-L-fucopyranose

> <FORMULA>
C16H28O9

> <MASS>
364.38810

> <MONOISOTOPIC_MASS>
364.17333

> <CHARGE>
0

> <SMILES>
CO[C@H]1[C@H](O)C[C@H](O[C@@H]1C)O[C@H]1[C@H](OC)[C@H](O)O[C@@H](C)[C@H]1OC(C)=O

> <INCHI>
InChI=1S/C16H28O9/c1-7-12(20-4)10(18)6-11(22-7)25-14-13(24-9(3)17)8(2)23-16(19)15(14)21-5/h7-8,10-16,18-19H,6H2,1-5H3/t7-,8+,10-,11-,12-,13-,14-,15+,16-/m1/s1

> <INCHIKEY>
CMGBHLOWPDPUEJ-VTZKQNJQSA-N

> <PUBMED_CITATION>
1691978

$$$$

Marvin  05131013472D          

 26 27  0  0  1  0            999 V2000
   14.5699  -11.6196    0.0000 C   0  0  1  0  0  0  0  0  0  0  0  0
   14.5699  -12.4446    0.0000 C   0  0  1  0  0  0  0  0  0  0  0  0
   13.8554  -11.2071    0.0000 O   0  0  0  0  0  0  0  0  0  0  0  0
   13.8554  -12.8571    0.0000 C   0  0  1  0  0  0  0  0  0  0  0  0
   13.1409  -11.6196    0.0000 C   0  0  2  0  0  0  0  0  0  0  0  0
   13.1409  -12.4446    0.0000 C   0  0  2  0  0  0  0  0  0  0  0  0
   15.2844  -11.2071    0.0000 O   0  0  0  0  0  0  0  0  0  0  0  0
   15.2844  -12.8571    0.0000 O   0  0  0  0  0  0  0  0  0  0  0  0
   13.8554  -13.6821    0.0000 O   0  0  0  0  0  0  0  0  0  0  0  0
   12.4265  -12.8571    0.0000 O   0  0  0  0  0  0  0  0  0  0  0  0
   12.6153  -11.2071    0.0000 C   0  0  0  0  0  0  0  0  0  0  0  0
   15.2844  -13.6821    0.0000 C   0  0  0  0  0  0  0  0  0  0  0  0
   13.1409  -14.0946    0.0000 C   0  0  0  0  0  0  0  0  0  0  0  0
   11.7120  -12.4445    0.0000 C   0  0  1  0  0  0  0  0  0  0  0  0
   10.9976  -12.8570    0.0000 C   0  0  1  0  0  0  0  0  0  0  0  0
   11.7120  -11.6195    0.0000 O   0  0  0  0  0  0  0  0  0  0  0  0
   10.2830  -12.4445    0.0000 C   0  0  2  0  0  0  0  0  0  0  0  0
   10.9976  -11.2070    0.0000 C   0  0  1  0  0  0  0  0  0  0  0  0
   10.2831  -11.6195    0.0000 C   0  0  1  0  0  0  0  0  0  0  0  0
   10.9975  -13.6820    0.0000 O   0  0  0  0  0  0  0  0  0  0  0  0
    9.5686  -12.8570    0.0000 O   0  0  0  0  0  0  0  0  0  0  0  0
    9.5686  -11.2070    0.0000 O   0  0  0  0  0  0  0  0  0  0  0  0
   10.9976  -10.3820    0.0000 C   0  0  0  0  0  0  0  0  0  0  0  0
   10.2832   -9.9695    0.0000 O   0  0  0  0  0  0  0  0  0  0  0  0
    8.8541  -12.4444    0.0000 C   0  0  0  0  0  0  0  0  0  0  0  0
    9.5686  -10.3820    0.0000 C   0  0  0  0  0  0  0  0  0  0  0  0
  1  2  1  0  0  0  0
  1  3  1  0  0  0  0
  2  4  1  0  0  0  0
  3  5  1  0  0  0  0
  4  6  1  0  0  0  0
  5  6  1  0  0  0  0
  1  7  1  1  0  0  0
  2  8  1  6  0  0  0
  4  9  1  6  0  0  0
  6 10  1  1  0  0  0
  5 11  1  6  0  0  0
  8 12  1  0  0  0  0
  9 13  1  0  0  0  0
 14 15  1  0  0  0  0
 14 16  1  0  0  0  0
 15 17  1  0  0  0  0
 16 18  1  0  0  0  0
 17 19  1  0  0  0  0
 18 19  1  0  0  0  0
 14 10  1  1  0  0  0
 15 20  1  6  0  0  0
 17 21  1  1  0  0  0
 19 22  1  6  0  0  0
 18 23  1  1  0  0  0
 24 23  1  0  0  0  0
 21 25  1  0  0  0  0
 24 26  1  0  0  0  0
M  END
> <ID>
CHEBI:59465

> <NAME>
beta-D-Glcp3,6Me2-(1->4)-alpha-L-Rhap2,3-Me2

> <DEFINITION>
A disaccharide derivative consisting of 2,3-di-O-methyl-α-L-rhamnose having a 3,6-di-O-methyl-β-D-glucosyl residue attached at the 4-position.

> <STAR>
3

> <SYNONYM>
Mycobacterium leprae PGL-1 outer disaccharide; 6-deoxy-4-O-(3,6-di-O-methyl-beta-D-glucopyranosyl)-2,3-di-O-methyl-alpha-L-mannopyranose; 3,6-di-O-methyl-beta-D-glucopyranosyl-(1->4)-6-deoxy-2,3-di-O-methyl-alpha-L-mannopyranose

> <IUPAC_NAME>
3,6-di-O-methyl-beta-D-glucopyranosyl-(1->4)-2,3-di-O-methyl-alpha-L-rhamnopyranose

> <FORMULA>
C16H30O10

> <MASS>
382.40340

> <MONOISOTOPIC_MASS>
382.18390

> <CHARGE>
0

> <SMILES>
COC[C@H]1O[C@@H](O[C@H]2[C@H](C)O[C@@H](O)[C@H](OC)[C@@H]2OC)[C@H](O)[C@@H](OC)[C@@H]1O

> <INCHI>
InChI=1S/C16H30O10/c1-7-11(13(22-4)14(23-5)15(19)24-7)26-16-10(18)12(21-3)9(17)8(25-16)6-20-2/h7-19H,6H2,1-5H3/t7-,8+,9+,10+,11-,12-,13+,14+,15+,16-/m0/s1

> <INCHIKEY>
ZKQSBMMRFRSVRB-MOCMKUFQSA-N

> <PUBMED_CITATION>
9465158

$$$$

Marvin  05131015362D          

 24 25  0  0  1  0            999 V2000
   14.6957  -21.4698    0.0000 C   0  0  1  0  0  0  0  0  0  0  0  0
   14.6957  -22.2947    0.0000 C   0  0  1  0  0  0  0  0  0  0  0  0
   13.9810  -21.0573    0.0000 O   0  0  0  0  0  0  0  0  0  0  0  0
   13.9812  -22.7073    0.0000 C   0  0  1  0  0  0  0  0  0  0  0  0
   13.2667  -21.4699    0.0000 C   0  0  2  0  0  0  0  0  0  0  0  0
   13.2667  -22.2949    0.0000 C   0  0  2  0  0  0  0  0  0  0  0  0
   15.4100  -21.0571    0.0000 O   0  0  0  0  0  0  0  0  0  0  0  0
   15.4101  -22.7073    0.0000 O   0  0  0  0  0  0  0  0  0  0  0  0
   13.9812  -23.5323    0.0000 O   0  0  0  0  0  0  0  0  0  0  0  0
   12.5522  -22.7073    0.0000 O   0  0  0  0  0  0  0  0  0  0  0  0
   12.7409  -21.0574    0.0000 C   0  0  0  0  0  0  0  0  0  0  0  0
   15.4101  -23.5322    0.0000 C   0  0  0  0  0  0  0  0  0  0  0  0
   13.2667  -23.9448    0.0000 C   0  0  0  0  0  0  0  0  0  0  0  0
   16.1245  -19.8196    0.0000 C   0  0  1  0  0  0  0  0  0  0  0  0
   15.4100  -20.2322    0.0000 C   0  0  1  0  0  0  0  0  0  0  0  0
   16.1243  -18.9945    0.0000 O   0  0  0  0  0  0  0  0  0  0  0  0
   14.6955  -19.8197    0.0000 C   0  0  1  0  0  0  0  0  0  0  0  0
   15.4099  -18.5821    0.0000 C   0  0  2  0  0  0  0  0  0  0  0  0
   14.6954  -18.9947    0.0000 C   0  0  2  0  0  0  0  0  0  0  0  0
   16.8389  -20.2321    0.0000 O   0  0  0  0  0  0  0  0  0  0  0  0
   13.9810  -20.2322    0.0000 O   0  0  0  0  0  0  0  0  0  0  0  0
   13.9808  -18.5822    0.0000 O   0  0  0  0  0  0  0  0  0  0  0  0
   15.4098  -17.7571    0.0000 C   0  0  0  0  0  0  0  0  0  0  0  0
   13.2665  -19.8197    0.0000 C   0  0  0  0  0  0  0  0  0  0  0  0
  1  2  1  0  0  0  0
  1  3  1  0  0  0  0
  2  4  1  0  0  0  0
  3  5  1  0  0  0  0
  4  6  1  0  0  0  0
  5  6  1  0  0  0  0
  1  7  1  1  0  0  0
  2  8  1  6  0  0  0
  4  9  1  6  0  0  0
  6 10  1  1  0  0  0
  5 11  1  6  0  0  0
  8 12  1  0  0  0  0
  9 13  1  0  0  0  0
 14 15  1  0  0  0  0
 14 16  1  0  0  0  0
 15 17  1  0  0  0  0
 16 18  1  0  0  0  0
 17 19  1  0  0  0  0
 18 19  1  0  0  0  0
 14 20  1  1  0  0  0
 15  7  1  6  0  0  0
 17 21  1  6  0  0  0
 19 22  1  1  0  0  0
 18 23  1  6  0  0  0
 21 24  1  0  0  0  0
M  END
> <ID>
CHEBI:59470

> <NAME>
alpha-L-Rhap2,3Me2-(1->2)-alpha-L-Rhap3Me

> <DEFINITION>
A disaccharide derivative consisting of 3-O-methyl-α-L-rhamnose having a 2,3-di-O-methyl-α-L-rhamnosyl residue attached at the 2-position.

> <STAR>
3

> <SYNONYM>
Rha2,3Me2alpha1-2Rha3Mealpha; Mycobacterium leprae PGL-1 inner disaccharide; alpha-L-Rha2,3Me2-(1->2)-alpha-L-Rha3Me; 6-deoxy-2-O-(6-deoxy-2,3-di-O-methyl-alpha-L-mannopyranosyl)-3-O-methyl-alpha-L-mannopyranose; 6-deoxy-2,3-di-O-methyl-alpha-L-mannopyranosyl-(1->2)-6-deoxy-3-O-methyl-alpha-L-mannopyranose; 2,3-di-O-methyl-alpha-L-rhamnosyl-(1->2)-3-O-methyl-alpha-L-rhamnose

> <IUPAC_NAME>
2,3-di-O-methyl-alpha-L-rhamnopyranosyl-(1->2)-3-O-methyl-alpha-L-rhamnopyranose

> <FORMULA>
C15H28O9

> <MASS>
352.37740

> <MONOISOTOPIC_MASS>
352.17333

> <CHARGE>
0

> <SMILES>
CO[C@@H]1[C@@H](O)[C@H](C)O[C@@H](O[C@H]2[C@H](O)O[C@@H](C)[C@H](O)[C@H]2OC)[C@@H]1OC

> <INCHI>
InChI=1S/C15H28O9/c1-6-8(16)10(19-3)12(14(18)22-6)24-15-13(21-5)11(20-4)9(17)7(2)23-15/h6-18H,1-5H3/t6-,7-,8-,9-,10+,11+,12+,13+,14+,15-/m0/s1

> <INCHIKEY>
KPABGRBZXZVGRX-ACTSOFCJSA-N

> <PUBMED_CITATION>
9465158

$$$$

Marvin  05131016052D          

 14 14  0  0  0  0            999 V2000
   -1.5027    0.3241    0.0000 O   0  0  0  0  0  0  0  0  0  0  0  0
   -2.2171   -0.0884    0.0000 C   0  0  1  0  0  0  0  0  0  0  0  0
   -2.2171   -0.9134    0.0000 C   0  0  2  0  0  0  0  0  0  0  0  0
   -1.5027   -1.3259    0.0000 C   0  0  1  0  0  0  0  0  0  0  0  0
   -0.7882   -0.9134    0.0000 C   0  0  2  0  0  0  0  0  0  0  0  0
   -0.7882   -0.0884    0.0000 C   0  0  2  0  0  0  0  0  0  0  0  0
   -0.0737    0.3241    0.0000 O   0  0  0  0  0  0  0  0  0  0  0  0
   -1.5027   -2.1509    0.0000 O   0  0  0  0  0  0  0  0  0  0  0  0
   -2.9316    0.3241    0.0000 C   0  0  0  0  0  0  0  0  0  0  0  0
   -0.0737   -1.3259    0.0000 O   0  0  0  0  0  0  0  0  0  0  0  0
   -2.9316   -1.3259    0.0000 O   0  0  0  0  0  0  0  0  0  0  0  0
   -3.6461   -0.0884    0.0000 O   0  0  0  0  0  0  0  0  0  0  0  0
   -0.7882   -2.5634    0.0000 C   0  0  0  0  0  0  0  0  0  0  0  0
   -4.3606    0.3241    0.0000 C   0  0  0  0  0  0  0  0  0  0  0  0
  1  2  1  0  0  0  0
  1  6  1  0  0  0  0
  2  3  1  0  0  0  0
  3  4  1  0  0  0  0
  4  5  1  0  0  0  0
  5  6  1  0  0  0  0
  6  7  1  1  0  0  0
  4  8  1  1  0  0  0
  2  9  1  1  0  0  0
  5 10  1  6  0  0  0
  3 11  1  6  0  0  0
  9 12  1  0  0  0  0
  8 13  1  0  0  0  0
 12 14  1  0  0  0  0
M  END
> <ID>
CHEBI:59473

> <NAME>
3,6-di-O-methyl-beta-D-glucose

> <DEFINITION>
A monosaccharide derivative that is β-D-glucose in which the hydroxy groups at C-3 and C-6 are methylated.

> <STAR>
3

> <SYNONYM>
O(3),O(6)-dimethyl-beta-D-glucopyranose; Mycobacterium leprae PGL-1 outer monosaccharide; 3,6-di-O-methyl-beta-D-glucose

> <IUPAC_NAME>
3,6-di-O-methyl-beta-D-glucopyranose

> <FORMULA>
C8H16O6

> <MASS>
208.20900

> <MONOISOTOPIC_MASS>
208.09469

> <CHARGE>
0

> <SMILES>
COC[C@H]1O[C@@H](O)[C@H](O)[C@@H](OC)[C@@H]1O

> <INCHI>
InChI=1S/C8H16O6/c1-12-3-4-5(9)7(13-2)6(10)8(11)14-4/h4-11H,3H2,1-2H3/t4-,5-,6-,7+,8-/m1/s1

> <INCHIKEY>
HXTJYTSBXOATMS-UIAUGNHASA-N

> <BEILSTEIN_REGISTRY_NUMBER>
1908864

> <REAXYS_REGISTRY_NUMBER>
1908864

> <PUBMED_CITATION>
9465158

$$$$

Marvin  05141014532D          

 45 48  0  0  1  0            999 V2000
   13.4924   -4.8708    0.0000 C   0  0  1  0  0  0  0  0  0  0  0  0
   13.4924   -5.6958    0.0000 C   0  0  1  0  0  0  0  0  0  0  0  0
   12.7779   -4.4583    0.0000 O   0  0  0  0  0  0  0  0  0  0  0  0
   12.7779   -6.1083    0.0000 C   0  0  2  0  0  0  0  0  0  0  0  0
   12.0634   -4.8708    0.0000 C   0  0  1  0  0  0  0  0  0  0  0  0
   12.0634   -5.6958    0.0000 C   0  0  1  0  0  0  0  0  0  0  0  0
   14.2068   -4.4582    0.0000 O   0  0  0  0  0  0  0  0  0  0  0  0
   14.2068   -6.1083    0.0000 O   0  0  0  0  0  0  0  0  0  0  0  0
   12.7779   -6.9333    0.0000 O   0  0  0  0  0  0  0  0  0  0  0  0
   11.3489   -6.1082    0.0000 O   0  0  0  0  0  0  0  0  0  0  0  0
   11.3489   -4.4583    0.0000 C   0  0  0  0  0  0  0  0  0  0  0  0
   10.6344   -4.8708    0.0000 O   0  0  0  0  0  0  0  0  0  0  0  0
   10.6344   -6.5208    0.0000 C   0  0  1  0  0  0  0  0  0  0  0  0
   10.6344   -7.3458    0.0000 C   0  0  1  0  0  0  0  0  0  0  0  0
    9.9198   -6.1083    0.0000 O   0  0  0  0  0  0  0  0  0  0  0  0
    9.9198   -7.7583    0.0000 C   0  0  2  0  0  0  0  0  0  0  0  0
    9.2055   -6.5208    0.0000 C   0  0  1  0  0  0  0  0  0  0  0  0
    9.2055   -7.3458    0.0000 C   0  0  2  0  0  0  0  0  0  0  0  0
   11.3489   -7.7583    0.0000 O   0  0  0  0  0  0  0  0  0  0  0  0
    9.9198   -8.5833    0.0000 O   0  0  0  0  0  0  0  0  0  0  0  0
    8.4910   -7.7583    0.0000 O   0  0  0  0  0  0  0  0  0  0  0  0
    8.4910   -6.1083    0.0000 C   0  0  0  0  0  0  0  0  0  0  0  0
    7.7766   -6.5208    0.0000 O   0  0  0  0  0  0  0  0  0  0  0  0
    7.7766   -8.1708    0.0000 C   0  0  2  0  0  0  0  0  0  0  0  0
    7.7766   -8.9958    0.0000 C   0  0  1  0  0  0  0  0  0  0  0  0
    7.0621   -7.7583    0.0000 O   0  0  0  0  0  0  0  0  0  0  0  0
    7.0621   -9.4083    0.0000 C   0  0  2  0  0  0  0  0  0  0  0  0
    6.3476   -8.1708    0.0000 C   0  0  1  0  0  0  0  0  0  0  0  0
    6.3476   -8.9958    0.0000 C   0  0  2  0  0  0  0  0  0  0  0  0
    8.4910   -9.4083    0.0000 O   0  0  0  0  0  0  0  0  0  0  0  0
    7.0620  -10.2333    0.0000 O   0  0  0  0  0  0  0  0  0  0  0  0
    5.6331   -9.4083    0.0000 O   0  0  0  0  0  0  0  0  0  0  0  0
    5.6331   -7.7583    0.0000 C   0  0  0  0  0  0  0  0  0  0  0  0
    4.9186   -8.1708    0.0000 O   0  0  0  0  0  0  0  0  0  0  0  0
   16.3500   -3.2208    0.0000 C   0  0  1  0  0  0  0  0  0  0  0  0
   16.3500   -4.0457    0.0000 C   0  0  1  0  0  0  0  0  0  0  0  0
   15.6356   -2.8083    0.0000 O   0  0  0  0  0  0  0  0  0  0  0  0
   15.6356   -4.4582    0.0000 C   0  0  2  0  0  0  0  0  0  0  0  0
   14.9212   -3.2208    0.0000 C   0  0  1  0  0  0  0  0  0  0  0  0
   14.9212   -4.0457    0.0000 C   0  0  1  0  0  0  0  0  0  0  0  0
   17.0644   -2.8083    0.0000 O   0  0  0  0  0  0  0  0  0  0  0  0
   17.0644   -4.4582    0.0000 O   0  0  0  0  0  0  0  0  0  0  0  0
   15.6356   -5.2831    0.0000 O   0  0  0  0  0  0  0  0  0  0  0  0
   14.2068   -2.8083    0.0000 C   0  0  0  0  0  0  0  0  0  0  0  0
   13.4923   -3.2208    0.0000 O   0  0  0  0  0  0  0  0  0  0  0  0
  1  2  1  0  0  0  0
  1  3  1  0  0  0  0
  2  4  1  0  0  0  0
  3  5  1  0  0  0  0
  4  6  1  0  0  0  0
  5  6  1  0  0  0  0
  1  7  1  1  0  0  0
  2  8  1  6  0  0  0
  4  9  1  1  0  0  0
  6 10  1  6  0  0  0
  5 11  1  1  0  0  0
 12 11  1  0  0  0  0
 13 14  1  0  0  0  0
 13 15  1  0  0  0  0
 14 16  1  0  0  0  0
 15 17  1  0  0  0  0
 16 18  1  0  0  0  0
 17 18  1  0  0  0  0
 13 10  1  1  0  0  0
 14 19  1  6  0  0  0
 16 20  1  1  0  0  0
 18 21  1  1  0  0  0
 17 22  1  1  0  0  0
 23 22  1  0  0  0  0
 24 25  1  0  0  0  0
 24 26  1  0  0  0  0
 25 27  1  0  0  0  0
 26 28  1  0  0  0  0
 27 29  1  0  0  0  0
 28 29  1  0  0  0  0
 24 21  1  6  0  0  0
 25 30  1  6  0  0  0
 27 31  1  1  0  0  0
 29 32  1  1  0  0  0
 28 33  1  1  0  0  0
 34 33  1  0  0  0  0
 35 36  1  0  0  0  0
 35 37  1  0  0  0  0
 36 38  1  0  0  0  0
 37 39  1  0  0  0  0
 38 40  1  0  0  0  0
 39 40  1  0  0  0  0
 35 41  1  1  0  0  0
 36 42  1  6  0  0  0
 38 43  1  1  0  0  0
 40  7  1  6  0  0  0
 39 44  1  1  0  0  0
 45 44  1  0  0  0  0
M  END
> <ID>
CHEBI:59484

> <NAME>
alpha-D-Galp-(1->4)-beta-D-Galp-(1->4)-beta-D-Glcp-(1->4)-beta-D-Glcp

> <DEFINITION>
A linear tetrasaccharide consisting of two adjacent D-galactose residues and two adjacent β-D-glucose residues (one at the reducing end) joined by (1→4) linkages.

> <STAR>
3

> <SYNONYM>
Galalpha1-4Galbeta1-4Glcbeta1-4Glcbeta; alpha-D-galactosyl-(1->4)-beta-D-galactosyl-(1->4)-beta-D-glucosyl-(1->4)-beta-D-glucose; alpha-D-Gal-(1->4)-beta-D-Gal-(1->4)-beta-D-Glc-(1->4)-beta-D-Glc

> <IUPAC_NAME>
alpha-D-galactopyranosyl-(1->4)-beta-D-galactopyranosyl-(1->4)-beta-D-glucopyranosyl-(1->4)-beta-D-glucopyranose

> <FORMULA>
C24H42O21

> <MASS>
666.57770

> <MONOISOTOPIC_MASS>
666.22186

> <CHARGE>
0

> <SMILES>
OC[C@H]1O[C@H](O[C@H]2[C@@H](CO)O[C@@H](O[C@@H]3[C@@H](CO)O[C@@H](O[C@@H]4[C@@H](CO)O[C@@H](O)[C@H](O)[C@H]4O)[C@H](O)[C@H]3O)[C@H](O)[C@H]2O)[C@H](O)[C@@H](O)[C@H]1O

> <INCHI>
InChI=1S/C24H42O21/c25-1-5-9(29)10(30)15(35)22(40-5)44-19-7(3-27)42-24(17(37)12(19)32)45-20-8(4-28)41-23(16(36)13(20)33)43-18-6(2-26)39-21(38)14(34)11(18)31/h5-38H,1-4H2/t5-,6-,7-,8-,9+,10+,11-,12-,13-,14-,15-,16-,17-,18-,19+,20-,21-,22-,23+,24+/m1/s1

> <INCHIKEY>
LUEWUZLMQUOBSB-VLNMHUQXSA-N

> <PUBMED_CITATION>
15784565

$$$$

Ketcher 10211615052D 1   1.00000     0.00000     0

 26 27  0     1  0            999 V2000
    7.6243  -16.7107    0.0000 C   0  0  0  0  0  0  0  0  0  0  0  0
    7.6243  -17.7107    0.0000 C   0  0  0  0  0  0  0  0  0  0  0  0
    6.7582  -16.2107    0.0000 O   0  0  0  0  0  0  0  0  0  0  0  0
    6.7582  -18.2107    0.0000 C   0  0  0  0  0  0  0  0  0  0  0  0
    5.8922  -16.7107    0.0000 C   0  0  0  0  0  0  0  0  0  0  0  0
    5.8922  -17.7107    0.0000 C   0  0  0  0  0  0  0  0  0  0  0  0
    8.4903  -16.2107    0.0000 O   0  0  0  0  0  0  0  0  0  0  0  0
    8.4903  -18.2107    0.0000 O   0  0  0  0  0  0  0  0  0  0  0  0
    6.7582  -19.2107    0.0000 O   0  0  0  0  0  0  0  0  0  0  0  0
    5.0262  -18.2107    0.0000 O   0  0  0  0  0  0  0  0  0  0  0  0
    5.0262  -16.2107    0.0000 C   0  0  0  0  0  0  0  0  0  0  0  0
    4.1602  -16.7107    0.0000 O   0  0  0  0  0  0  0  0  0  0  0  0
   11.0883  -14.7106    0.0000 C   0  0  0  0  0  0  0  0  0  0  0  0
   11.0883  -15.7106    0.0000 C   0  0  0  0  0  0  0  0  0  0  0  0
   10.2223  -14.2106    0.0000 O   0  0  0  0  0  0  0  0  0  0  0  0
   10.2223  -16.2107    0.0000 C   0  0  0  0  0  0  0  0  0  0  0  0
    9.3563  -14.7106    0.0000 C   0  0  0  0  0  0  0  0  0  0  0  0
    9.3563  -15.7106    0.0000 C   0  0  0  0  0  0  0  0  0  0  0  0
   11.9544  -14.2106    0.0000 O   0  0  0  0  0  0  0  0  0  0  0  0
   11.9544  -16.2107    0.0000 O   0  0  0  0  0  0  0  0  0  0  0  0
   10.2223  -17.2107    0.0000 O   0  0  0  0  0  0  0  0  0  0  0  0
    8.4903  -14.2106    0.0000 C   0  0  0  0  0  0  0  0  0  0  0  0
    7.6243  -14.7106    0.0000 C   0  0  0  0  0  0  0  0  0  0  0  0
    6.7583  -14.2106    0.0000 O   0  0  0  0  0  0  0  0  0  0  0  0
    8.4903  -13.2107    0.0000 O   0  0  0  0  0  0  0  0  0  0  0  0
    9.3563  -13.7106    0.0000 H   0  0  0  0  0  0  0  0  0  0  0  0
  1  2  1  0     0  0
  1  3  1  0     0  0
  2  4  1  0     0  0
  3  5  1  0     0  0
  4  6  1  0     0  0
  5  6  1  0     0  0
  1  7  1  6     0  0
  2  8  1  6     0  0
  4  9  1  1     0  0
  6 10  1  6     0  0
  5 11  1  1     0  0
 12 11  1  0     0  0
 13 14  1  0     0  0
 13 15  1  0     0  0
 14 16  1  0     0  0
 17 15  1  0     0  0
 16 18  1  0     0  0
 17 18  1  0     0  0
 13 19  1  6     0  0
 14 20  1  1     0  0
 16 21  1  1     0  0
 18  7  1  6     0  0
 17 22  1  0     0  0
 23 22  1  0     0  0
 24 23  1  0     0  0
 22 25  1  6     0  0
 17 26  1  6     0  0
M  END
> <ID>
CHEBI:59486

> <NAME>
beta-D-Glcp-(1->4)-L-alpha-D-Hepp

> <DEFINITION>
A disaccharide consisting of a D-glucosyl residue in α-(1→4)-linkage with L-glycero-α-D-manno-heptose.

> <STAR>
3

> <SYNONYM>
Glcbeta1-4Hepalpha; Glc-Hep; beta-D-glucosyl-(1->4)-L-glycero-alpha-D-manno-heptose; beta-D-Glc-(1->4)-L-alpha-D-Hep; 4-O-beta-D-glucopyranosyl-L-glycero-alpha-D-manno-heptopyranose

> <IUPAC_NAME>
beta-D-glucopyranosyl-(1->4)-L-glycero-alpha-D-manno-heptopyranose

> <FORMULA>
C13H24O12

> <MASS>
372.323

> <MONOISOTOPIC_MASS>
372.12678

> <CHARGE>
0

> <SMILES>
[C@H]1([C@@H]([C@H]([C@@H]([C@H](O1)CO)O)O)O)O[C@H]2[C@@H]([C@@H]([C@H](O[C@@]2([C@H](CO)O)[H])O)O)O

> <INCHI>
InChI=1S/C13H24O12/c14-1-3(16)10-11(7(19)8(20)12(22)24-10)25-13-9(21)6(18)5(17)4(2-15)23-13/h3-22H,1-2H2/t3-,4+,5+,6-,7+,8-,9+,10+,11-,12-,13+/m0/s1

> <INCHIKEY>
WOVMZLJVKAQOLN-QTUPBYHYSA-N

> <PUBMED_CITATION>
1910006

$$$$

Marvin  05141016112D          

 37 39  0  0  1  0            999 V2000
   15.6303   -2.1917    0.0000 C   0  0  1  0  0  0  0  0  0  0  0  0
   15.6303   -3.0167    0.0000 C   0  0  1  0  0  0  0  0  0  0  0  0
   14.9158   -1.7792    0.0000 O   0  0  0  0  0  0  0  0  0  0  0  0
   14.9158   -3.4292    0.0000 C   0  0  2  0  0  0  0  0  0  0  0  0
   14.2014   -2.1917    0.0000 C   0  0  1  0  0  0  0  0  0  0  0  0
   14.2014   -3.0167    0.0000 C   0  0  2  0  0  0  0  0  0  0  0  0
   16.3448   -1.7792    0.0000 O   0  0  0  0  0  0  0  0  0  0  0  0
   16.3448   -3.4292    0.0000 O   0  0  0  0  0  0  0  0  0  0  0  0
   14.9158   -4.2542    0.0000 O   0  0  0  0  0  0  0  0  0  0  0  0
   13.4869   -3.4292    0.0000 O   0  0  0  0  0  0  0  0  0  0  0  0
   13.4869   -1.7792    0.0000 C   0  0  0  0  0  0  0  0  0  0  0  0
   12.7724   -2.1917    0.0000 O   0  0  0  0  0  0  0  0  0  0  0  0
   14.2014   -4.6667    0.0000 C   0  0  1  0  0  0  0  0  0  0  0  0
   14.2014   -5.4917    0.0000 C   0  0  1  0  0  0  0  0  0  0  0  0
   13.4868   -4.2542    0.0000 O   0  0  0  0  0  0  0  0  0  0  0  0
   13.4868   -5.9042    0.0000 C   0  0  2  0  0  0  0  0  0  0  0  0
   12.7724   -4.6667    0.0000 C   0  0  1  0  0  0  0  0  0  0  0  0
   12.7724   -5.4917    0.0000 C   0  0  1  0  0  0  0  0  0  0  0  0
   14.9158   -5.9042    0.0000 N   0  0  0  0  0  0  0  0  0  0  0  0
   13.4868   -6.7292    0.0000 O   0  0  0  0  0  0  0  0  0  0  0  0
   12.0579   -5.9042    0.0000 O   0  0  0  0  0  0  0  0  0  0  0  0
   12.0579   -4.2542    0.0000 C   0  0  0  0  0  0  0  0  0  0  0  0
   11.3434   -4.6667    0.0000 O   0  0  0  0  0  0  0  0  0  0  0  0
   11.3434   -6.3167    0.0000 C   0  0  1  0  0  0  0  0  0  0  0  0
   11.3434   -7.1417    0.0000 C   0  0  1  0  0  0  0  0  0  0  0  0
   10.6289   -5.9042    0.0000 O   0  0  0  0  0  0  0  0  0  0  0  0
   10.6289   -7.5542    0.0000 C   0  0  2  0  0  0  0  0  0  0  0  0
    9.9145   -6.3167    0.0000 C   0  0  1  0  0  0  0  0  0  0  0  0
    9.9145   -7.1417    0.0000 C   0  0  2  0  0  0  0  0  0  0  0  0
   12.0579   -7.5543    0.0000 O   0  0  0  0  0  0  0  0  0  0  0  0
   10.6289   -8.3792    0.0000 O   0  0  0  0  0  0  0  0  0  0  0  0
    9.2000   -7.5542    0.0000 O   0  0  0  0  0  0  0  0  0  0  0  0
    9.2000   -5.9042    0.0000 C   0  0  0  0  0  0  0  0  0  0  0  0
    8.4855   -6.3168    0.0000 O   0  0  0  0  0  0  0  0  0  0  0  0
   15.6303   -5.4918    0.0000 C   0  0  0  0  0  0  0  0  0  0  0  0
   15.6303   -4.6668    0.0000 O   0  0  0  0  0  0  0  0  0  0  0  0
   16.3447   -5.9043    0.0000 C   0  0  0  0  0  0  0  0  0  0  0  0
  1  2  1  0  0  0  0
  1  3  1  0  0  0  0
  2  4  1  0  0  0  0
  3  5  1  0  0  0  0
  4  6  1  0  0  0  0
  5  6  1  0  0  0  0
  1  7  1  1  0  0  0
  2  8  1  6  0  0  0
  4  9  1  1  0  0  0
  6 10  1  1  0  0  0
  5 11  1  1  0  0  0
 12 11  1  0  0  0  0
 13 14  1  0  0  0  0
 13 15  1  0  0  0  0
 14 16  1  0  0  0  0
 15 17  1  0  0  0  0
 16 18  1  0  0  0  0
 17 18  1  0  0  0  0
 13  9  1  1  0  0  0
 14 19  1  6  0  0  0
 16 20  1  1  0  0  0
 18 21  1  6  0  0  0
 17 22  1  1  0  0  0
 23 22  1  0  0  0  0
 24 25  1  0  0  0  0
 24 26  1  0  0  0  0
 25 27  1  0  0  0  0
 26 28  1  0  0  0  0
 27 29  1  0  0  0  0
 28 29  1  0  0  0  0
 24 21  1  1  0  0  0
 25 30  1  6  0  0  0
 27 31  1  1  0  0  0
 29 32  1  1  0  0  0
 28 33  1  1  0  0  0
 34 33  1  0  0  0  0
 36 35  2  0  0  0  0
 37 35  1  0  0  0  0
 19 35  1  0  0  0  0
M  END
> <ID>
CHEBI:59487

> <NAME>
beta-D-Galp-(1->4)-beta-D-GlcpNAc-(1->3)-beta-D-Galp

> <DEFINITION>
An amino trisaccharide comprising an N-acetyl β-D-glucosaminyl residue flanked by two β-D-galactopyranose residues (one at the reducing end).

> <STAR>
3

> <SYNONYM>
Lacto-N-neotetraose; i-trisaccharide; Galbeta1-4GlcNAcbeta1-4Galbeta; beta-Gal-(1->4)-beta-GlcNAc-(1->3)-beta-Gal; beta-D-galactosyl-(1->4)-N-acetyl-beta-D-glucosaminyl-(1->3)-beta-D-galactose; beta-D-Gal-(1->4)-beta-D-GlcNAc-(1->3)-beta-D-Gal

> <IUPAC_NAME>
beta-D-galactopyranosyl-(1->4)-2-acetamido-2-deoxy-beta-D-glucopyranosyl-(1->3)-beta-D-galactopyranose

> <FORMULA>
C20H35NO16

> <MASS>
545.48900

> <MONOISOTOPIC_MASS>
545.19558

> <CHARGE>
0

> <SMILES>
CC(=O)N[C@@H]1[C@@H](O)[C@H](O[C@@H]2O[C@H](CO)[C@H](O)[C@H](O)[C@H]2O)[C@@H](CO)O[C@H]1O[C@@H]1[C@@H](O)[C@H](O)O[C@H](CO)[C@@H]1O

> <INCHI>
InChI=1S/C20H35NO16/c1-5(25)21-9-12(28)16(36-20-14(30)13(29)10(26)6(2-22)34-20)8(4-24)35-19(9)37-17-11(27)7(3-23)33-18(32)15(17)31/h6-20,22-24,26-32H,2-4H2,1H3,(H,21,25)/t6-,7-,8-,9-,10+,11+,12-,13+,14-,15-,16-,17+,18-,19+,20+/m1/s1

> <INCHIKEY>
VGVHVNDLCYSGNE-OGBLMHIUSA-N

> <BEILSTEIN_REGISTRY_NUMBER>
5786015

> <PUBMED_CITATION>
7790083; 8737251

$$$$

Mrv0541 05221415042D          

 29 30  0  0  1  0            999 V2000
    6.3428  -17.3624    0.0000 C   0  0  2  0  0  0  0  0  0  0  0  0
    6.3428  -18.1874    0.0000 C   0  0  2  0  0  0  0  0  0  0  0  0
    5.6282  -16.9499    0.0000 O   0  0  0  0  0  0  0  0  0  0  0  0
    5.6282  -18.5999    0.0000 C   0  0  2  0  0  0  0  0  0  0  0  0
    4.9138  -17.3624    0.0000 C   0  0  1  0  0  0  0  0  0  0  0  0
    4.9138  -18.1874    0.0000 C   0  0  1  0  0  0  0  0  0  0  0  0
    7.0572  -16.9499    0.0000 O   0  0  0  0  0  0  0  0  0  0  0  0
    7.0572  -18.5999    0.0000 O   0  0  0  0  0  0  0  0  0  0  0  0
    5.6282  -19.4250    0.0000 O   0  0  0  0  0  0  0  0  0  0  0  0
    4.1993  -18.5999    0.0000 O   0  0  0  0  0  0  0  0  0  0  0  0
    4.1993  -16.9499    0.0000 C   0  0  2  0  0  0  0  0  0  0  0  0
    3.4848  -17.3624    0.0000 C   0  0  0  0  0  0  0  0  0  0  0  0
    2.7704  -16.9499    0.0000 O   0  0  0  0  0  0  0  0  0  0  0  0
    4.1993  -16.1249    0.0000 O   0  0  0  0  0  0  0  0  0  0  0  0
    7.7717  -14.8874    0.0000 C   0  0  2  0  0  0  0  0  0  0  0  0
    7.7717  -15.7124    0.0000 C   0  0  2  0  0  0  0  0  0  0  0  0
    7.0572  -14.4749    0.0000 O   0  0  0  0  0  0  0  0  0  0  0  0
    7.0572  -16.1249    0.0000 C   0  0  2  0  0  0  0  0  0  0  0  0
    6.3428  -14.8874    0.0000 C   0  0  1  0  0  0  0  0  0  0  0  0
    6.3428  -15.7124    0.0000 C   0  0  1  0  0  0  0  0  0  0  0  0
    8.4862  -14.4749    0.0000 O   0  0  0  0  0  0  0  0  0  0  0  0
    8.4862  -16.1249    0.0000 O   0  0  0  0  0  0  0  0  0  0  0  0
    5.6282  -16.1249    0.0000 O   0  0  0  0  0  0  0  0  0  0  0  0
    5.6282  -14.4749    0.0000 C   0  0  2  0  0  0  0  0  0  0  0  0
    4.9138  -14.8874    0.0000 C   0  0  0  0  0  0  0  0  0  0  0  0
    4.1993  -14.4749    0.0000 O   0  0  0  0  0  0  0  0  0  0  0  0
    5.6282  -13.6499    0.0000 O   0  0  0  0  0  0  0  0  0  0  0  0
    6.3428  -14.0624    0.0000 H   0  0  0  0  0  0  0  0  0  0  0  0
    4.9138  -16.5374    0.0000 H   0  0  0  0  0  0  0  0  0  0  0  0
  1  2  1  0  0  0  0
  1  3  1  0  0  0  0
  2  4  1  0  0  0  0
  5  3  1  0  0  0  0
  4  6  1  0  0  0  0
  5  6  1  0  0  0  0
  1  7  1  6  0  0  0
  2  8  1  1  0  0  0
  4  9  1  1  0  0  0
  6 10  1  6  0  0  0
  5 11  1  0  0  0  0
 12 11  1  0  0  0  0
 13 12  1  0  0  0  0
 11 14  1  6  0  0  0
 15 16  1  0  0  0  0
 15 17  1  0  0  0  0
 16 18  1  0  0  0  0
 19 17  1  0  0  0  0
 18 20  1  0  0  0  0
 19 20  1  0  0  0  0
 15 21  1  6  0  0  0
 16 22  1  1  0  0  0
 18  7  1  1  0  0  0
 20 23  1  6  0  0  0
 19 24  1  0  0  0  0
 25 24  1  0  0  0  0
 26 25  1  0  0  0  0
 24 27  1  6  0  0  0
 19 28  1  6  0  0  0
  5 29  1  6  0  0  0
M  END
> <ID>
CHEBI:59488

> <NAME>
L-alpha-D-Hepp-(1->3)-L-alpha-D-Hepp

> <DEFINITION>
A disaccharide consisting of two L-glycero-α-D-manno-heptose residues joined by a(1→3)-linkage.

> <STAR>
3

> <SYNONYM>
L-glycero-alpha-D-manno-heptosyl-(1->3)-L-glycero-alpha-D-manno-heptose; L-alpha-D-Hep-(1->3)-L-alpha-D-Hep; Hepalpha1-3Hep; Hep-Hep; 3-O-L-glycero-alpha-D-manno-heptopyranosyl-L-glycero-alpha-D-manno-heptopyranose

> <IUPAC_NAME>
L-glycero-alpha-D-manno-heptopyranosyl-(1->3)-L-glycero-alpha-D-manno-heptopyranose

> <FORMULA>
C14H26O13

> <MASS>
402.34840

> <MONOISOTOPIC_MASS>
402.13734

> <CHARGE>
0

> <SMILES>
OC[C@H](O)[C@H]1O[C@H](O)[C@@H](O)[C@@H](O[C@H]2O[C@H]([C@@H](O)CO)[C@@H](O)[C@H](O)[C@@H]2O)[C@@H]1O

> <INCHI>
InChI=1S/C14H26O13/c15-1-3(17)10-6(20)5(19)7(21)14(26-10)27-12-8(22)11(4(18)2-16)25-13(24)9(12)23/h3-24H,1-2H2/t3-,4-,5-,6-,7-,8+,9-,10+,11+,12-,13-,14+/m0/s1

> <INCHIKEY>
GXCLGNHLZMTTQJ-ZOULSWATSA-N

> <REAXYS_REGISTRY_NUMBER>
4715073

> <PUBMED_CITATION>
1910006

$$$$

Marvin  05241009282D          

 21 21  0  0  1  0            999 V2000
   10.8070   -5.2989    0.0000 C   0  0  0  0  0  0  0  0  0  0  0  0
   10.0925   -5.7114    0.0000 C   0  0  1  0  0  0  0  0  0  0  0  0
   10.0925   -6.5365    0.0000 O   0  0  0  0  0  0  0  0  0  0  0  0
    9.3780   -5.2989    0.0000 C   0  0  1  0  0  0  0  0  0  0  0  0
    8.6635   -5.7114    0.0000 O   0  0  0  0  0  0  0  0  0  0  0  0
   10.0925   -4.0615    0.0000 O   0  0  0  0  0  0  0  0  0  0  0  0
    8.6635   -4.0615    0.0000 C   0  0  2  0  0  0  0  0  0  0  0  0
    8.6635   -3.2364    0.0000 O   0  0  0  0  0  0  0  0  0  0  0  0
    7.9491   -4.4739    0.0000 C   0  0  0  0  0  0  0  0  0  0  0  0
    7.2345   -4.0615    0.0000 O   0  0  0  0  0  0  0  0  0  0  0  0
    9.3780   -4.4739    0.0000 C   0  0  2  0  0  0  0  0  0  0  0  0
    9.3780   -3.6489    0.0000 H   0  0  0  0  0  0  0  0  0  0  0  0
   10.8070   -4.4739    0.0000 C   0  0  2  0  0  0  0  0  0  0  0  0
   10.8070   -6.9490    0.0000 P   0  0  0  0  0  0  0  0  0  0  0  0
   11.5214   -6.5365    0.0000 O   0  0  0  0  0  0  0  0  0  0  0  0
   10.8070   -7.7740    0.0000 O   0  0  0  0  0  0  0  0  0  0  0  0
   10.8070   -6.1240    0.0000 O   0  0  0  0  0  0  0  0  0  0  0  0
   11.5215   -4.8864    0.0000 O   0  0  0  0  0  0  0  0  0  0  0  0
   11.2195   -3.7595    0.0000 C   0  0  0  0  0  0  0  0  0  0  0  0
   12.0445   -3.7595    0.0000 O   0  0  0  0  0  0  0  0  0  0  0  0
   10.8070   -3.0450    0.0000 O   0  0  0  0  0  0  0  0  0  0  0  0
 13  1  1  0  0  0  0
 13  6  1  0  0  0  0
  1  2  1  0  0  0  0
  2  3  1  1  0  0  0
  2  4  1  0  0  0  0
  4  5  1  1  0  0  0
  4 11  1  0  0  0  0
 11  6  1  0  0  0  0
 11  7  1  0  0  0  0
  7  8  1  1  0  0  0
  7  9  1  0  0  0  0
  9 10  1  0  0  0  0
 11 12  1  6  0  0  0
  3 14  1  0  0  0  0
 14 15  1  0  0  0  0
 14 16  2  0  0  0  0
 14 17  1  0  0  0  0
 13 18  1  6  0  0  0
 13 19  1  0  0  0  0
 19 20  1  0  0  0  0
 19 21  2  0  0  0  0
M  END
> <ID>
CHEBI:59491

> <NAME>
3-deoxy-alpha-D-manno-oct-2-ulopyranosonic acid 4-phosphate

> <DEFINITION>
An aldooctose phosphate that is the 4-O-phosphono derivative of 3-deoxy-α-D-manno-oct-2-ulopyranosonic acid.

> <STAR>
3

> <SYNONYM>
Kdo4P; 3-deoxy-4-O-phosphono-alpha-D-manno-oct-2-ulosonic acid

> <IUPAC_NAME>
3-deoxy-4-O-phosphono-alpha-D-manno-oct-2-ulopyranosonic acid

> <FORMULA>
C8H15O11P

> <MASS>
318.17190

> <MONOISOTOPIC_MASS>
318.03520

> <CHARGE>
0

> <SMILES>
[H][C@@]1(O[C@](O)(C[C@@H](OP(O)(O)=O)[C@H]1O)C(O)=O)[C@H](O)CO

> <INCHI>
InChI=1S/C8H15O11P/c9-2-3(10)6-5(11)4(19-20(15,16)17)1-8(14,18-6)7(12)13/h3-6,9-11,14H,1-2H2,(H,12,13)(H2,15,16,17)/t3-,4-,5-,6-,8-/m1/s1

> <INCHIKEY>
BPGLVUORWCYWPW-HXUQBWEZSA-N

> <PUBMED_CITATION>
9044290

$$$$

Marvin  06011012032D          

 41 43  0  0  1  0            999 V2000
   18.8781  -12.8391    0.0000 C   0  0  2  0  0  0  0  0  0  0  0  0
   19.5926  -13.2516    0.0000 C   0  0  1  0  0  0  0  0  0  0  0  0
   18.1636  -13.2518    0.0000 O   0  0  0  0  0  0  0  0  0  0  0  0
   19.5926  -14.0767    0.0000 C   0  0  2  0  0  0  0  0  0  0  0  0
   18.1637  -14.0767    0.0000 C   0  0  1  0  0  0  0  0  0  0  0  0
   18.8781  -14.4892    0.0000 C   0  0  1  0  0  0  0  0  0  0  0  0
   20.3071  -12.8392    0.0000 N   0  0  0  0  0  0  0  0  0  0  0  0
   20.3071  -14.4892    0.0000 O   0  0  0  0  0  0  0  0  0  0  0  0
   18.8781  -15.3142    0.0000 O   0  0  0  0  0  0  0  0  0  0  0  0
   17.4492  -14.4892    0.0000 C   0  0  0  0  0  0  0  0  0  0  0  0
   17.4492  -15.3143    0.0000 O   0  0  0  0  0  0  0  0  0  0  0  0
   21.0215  -13.2517    0.0000 C   0  0  0  0  0  0  0  0  0  0  0  0
   21.7360  -12.8392    0.0000 C   0  0  0  0  0  0  0  0  0  0  0  0
   21.0215  -14.0767    0.0000 O   0  0  0  0  0  0  0  0  0  0  0  0
   18.8781  -12.0141    0.0000 O   0  0  0  0  0  0  0  0  0  0  0  0
   18.1637  -10.7766    0.0000 C   0  0  2  0  0  0  0  0  0  0  0  0
   18.1637  -11.6016    0.0000 C   0  0  2  0  0  0  0  0  0  0  0  0
   17.4491  -10.3641    0.0000 O   0  0  0  0  0  0  0  0  0  0  0  0
   17.4491  -12.0141    0.0000 C   0  0  2  0  0  0  0  0  0  0  0  0
   16.7347  -10.7766    0.0000 C   0  0  1  0  0  0  0  0  0  0  0  0
   16.7347  -11.6016    0.0000 C   0  0  1  0  0  0  0  0  0  0  0  0
   18.8781  -10.3641    0.0000 O   0  0  0  0  0  0  0  0  0  0  0  0
   17.4491  -12.8392    0.0000 O   0  0  0  0  0  0  0  0  0  0  0  0
   16.0202  -12.0141    0.0000 O   0  0  0  0  0  0  0  0  0  0  0  0
   16.0202  -10.3641    0.0000 C   0  0  2  0  0  0  0  0  0  0  0  0
   15.3057  -10.7766    0.0000 C   0  0  0  0  0  0  0  0  0  0  0  0
   14.5913  -10.3641    0.0000 O   0  0  0  0  0  0  0  0  0  0  0  0
   16.0202   -9.5391    0.0000 O   0  0  0  0  0  0  0  0  0  0  0  0
   19.5926   -8.3016    0.0000 C   0  0  2  0  0  0  0  0  0  0  0  0
   19.5926   -9.1266    0.0000 C   0  0  2  0  0  0  0  0  0  0  0  0
   18.8781   -7.8891    0.0000 O   0  0  0  0  0  0  0  0  0  0  0  0
   18.8781   -9.5391    0.0000 C   0  0  2  0  0  0  0  0  0  0  0  0
   18.1637   -8.3016    0.0000 C   0  0  1  0  0  0  0  0  0  0  0  0
   18.1637   -9.1266    0.0000 C   0  0  1  0  0  0  0  0  0  0  0  0
   20.3071   -7.8891    0.0000 O   0  0  0  0  0  0  0  0  0  0  0  0
   20.3071   -9.5391    0.0000 O   0  0  0  0  0  0  0  0  0  0  0  0
   17.4491   -9.5391    0.0000 O   0  0  0  0  0  0  0  0  0  0  0  0
   17.4491   -7.8891    0.0000 C   0  0  2  0  0  0  0  0  0  0  0  0
   16.7347   -8.3016    0.0000 C   0  0  0  0  0  0  0  0  0  0  0  0
   16.0202   -7.8891    0.0000 O   0  0  0  0  0  0  0  0  0  0  0  0
   17.4491   -7.0641    0.0000 O   0  0  0  0  0  0  0  0  0  0  0  0
  1  2  1  0  0  0  0
  1  3  1  0  0  0  0
  2  4  1  0  0  0  0
  3  5  1  0  0  0  0
  4  6  1  0  0  0  0
  5  6  1  0  0  0  0
  2  7  1  6  0  0  0
  4  8  1  1  0  0  0
  6  9  1  6  0  0  0
  5 10  1  1  0  0  0
 11 10  1  0  0  0  0
  7 12  1  0  0  0  0
 12 13  1  0  0  0  0
 12 14  2  0  0  0  0
  1 15  1  6  0  0  0
 16 17  1  0  0  0  0
 16 18  1  0  0  0  0
 17 19  1  0  0  0  0
 20 18  1  1  0  0  0
 19 21  1  0  0  0  0
 20 21  1  0  0  0  0
 16 22  1  6  0  0  0
 17 15  1  1  0  0  0
 19 23  1  1  0  0  0
 21 24  1  6  0  0  0
 20 25  1  0  0  0  0
 26 25  1  0  0  0  0
 27 26  1  0  0  0  0
 25 28  1  6  0  0  0
 29 30  1  0  0  0  0
 29 31  1  0  0  0  0
 30 32  1  0  0  0  0
 33 31  1  1  0  0  0
 32 34  1  0  0  0  0
 33 34  1  0  0  0  0
 29 35  1  6  0  0  0
 30 36  1  1  0  0  0
 32 22  1  1  0  0  0
 34 37  1  6  0  0  0
 33 38  1  0  0  0  0
 39 38  1  0  0  0  0
 40 39  1  0  0  0  0
 38 41  1  6  0  0  0
M  END
> <ID>
CHEBI:59492

> <NAME>
alpha-D-GlcpNAc-(1->2)-L-alpha-D-Hepp-(1->3)-L-alpha-D-Hepp

> <DEFINITION>
A trisaccharide cmoposed of two L-glycero-α-D-manno-heptopyranose residues and one N-acetyl-D-glucosamine residue, linked as shown; a part of the meningococcal inner core oligosacccharide with independent antigenic properties.

> <STAR>
3

> <SYNONYM>
Nacetyl-alpha-D-glucosaminyl-(1->2)-L-glycero-alpha-D-manno-heptosyl-(1->3)-L-glycero-alpha-D-manno-heptose; GlcNAcalpha1-2Hepalpha1-3Hepalpha; GlcNAc-Hep-Hep; alpha-D-GlcNAc-(1->2)-L-alpha-D-Hep-(1->3)-L-alpha-D-Hep

> <IUPAC_NAME>
2-acetamido-2-deoxy-alpha-D-glucopyranosyl-(1->2)-L-glycero-alpha-D-manno-heptopyranosyl-(1->3)-L-glycero-alpha-D-manno-heptopyranose

> <FORMULA>
C22H39NO18

> <MASS>
605.54100

> <MONOISOTOPIC_MASS>
605.21671

> <CHARGE>
0

> <SMILES>
CC(=O)N[C@@H]1[C@@H](O)[C@H](O)[C@@H](CO)O[C@@H]1O[C@H]1[C@@H](O)[C@H](O)[C@H](O[C@@H]1O[C@@H]1[C@H](O)[C@@H](O)O[C@H]([C@@H](O)CO)[C@H]1O)[C@@H](O)CO

> <INCHI>
InChI=1S/C22H39NO18/c1-5(27)23-9-11(31)10(30)8(4-26)37-21(9)41-19-13(33)12(32)16(6(28)2-24)39-22(19)40-18-14(34)17(7(29)3-25)38-20(36)15(18)35/h6-22,24-26,28-36H,2-4H2,1H3,(H,23,27)/t6-,7-,8+,9+,10+,11+,12-,13-,14+,15-,16+,17+,18-,19-,20-,21+,22+/m0/s1

> <INCHIKEY>
RTGNBECMDIAECU-SMRVYFIJSA-N

> <PUBMED_CITATION>
1910006

$$$$

Marvin  05171009472D          

 38 40  0  0  1  0            999 V2000
    4.6700   -7.9221    0.0000 C   0  0  1  0  0  0  0  0  0  0  0  0
    4.6700   -8.7471    0.0000 C   0  0  1  0  0  0  0  0  0  0  0  0
    3.9554   -7.5096    0.0000 O   0  0  0  0  0  0  0  0  0  0  0  0
    3.9554   -9.1596    0.0000 C   0  0  2  0  0  0  0  0  0  0  0  0
    3.2410   -7.9221    0.0000 C   0  0  1  0  0  0  0  0  0  0  0  0
    3.2410   -8.7471    0.0000 C   0  0  1  0  0  0  0  0  0  0  0  0
    5.3844   -7.5096    0.0000 O   0  0  0  0  0  0  0  0  0  0  0  0
    5.3844   -9.1596    0.0000 O   0  0  0  0  0  0  0  0  0  0  0  0
    3.9554   -9.9846    0.0000 O   0  0  0  0  0  0  0  0  0  0  0  0
    2.5265   -9.1596    0.0000 O   0  0  0  0  0  0  0  0  0  0  0  0
    2.5265   -7.5096    0.0000 C   0  0  0  0  0  0  0  0  0  0  0  0
    1.8120   -7.9221    0.0000 O   0  0  0  0  0  0  0  0  0  0  0  0
    7.5279   -6.2720    0.0000 C   0  0  2  0  0  0  0  0  0  0  0  0
    7.5279   -7.0970    0.0000 C   0  0  2  0  0  0  0  0  0  0  0  0
    6.8134   -5.8595    0.0000 O   0  0  0  0  0  0  0  0  0  0  0  0
    6.8134   -7.5096    0.0000 C   0  0  2  0  0  0  0  0  0  0  0  0
    6.0989   -6.2720    0.0000 C   0  0  1  0  0  0  0  0  0  0  0  0
    6.0989   -7.0970    0.0000 C   0  0  1  0  0  0  0  0  0  0  0  0
    8.2423   -5.8595    0.0000 O   0  0  0  0  0  0  0  0  0  0  0  0
    8.2423   -7.5096    0.0000 O   0  0  0  0  0  0  0  0  0  0  0  0
    6.8134   -8.3346    0.0000 O   0  0  0  0  0  0  0  0  0  0  0  0
    5.3844   -5.8595    0.0000 C   0  0  2  0  0  0  0  0  0  0  0  0
    4.6700   -6.2720    0.0000 C   0  0  0  0  0  0  0  0  0  0  0  0
    3.9554   -5.8595    0.0000 O   0  0  0  0  0  0  0  0  0  0  0  0
    5.3844   -5.0345    0.0000 O   0  0  0  0  0  0  0  0  0  0  0  0
    7.5279   -8.7471    0.0000 C   0  0  2  0  0  0  0  0  0  0  0  0
    7.5279   -9.5721    0.0000 C   0  0  2  0  0  0  0  0  0  0  0  0
    8.2423   -8.3346    0.0000 O   0  0  0  0  0  0  0  0  0  0  0  0
    8.2423   -9.9846    0.0000 C   0  0  2  0  0  0  0  0  0  0  0  0
    8.9568   -8.7471    0.0000 C   0  0  1  0  0  0  0  0  0  0  0  0
    8.9568   -9.5721    0.0000 C   0  0  1  0  0  0  0  0  0  0  0  0
    6.8134   -9.9846    0.0000 O   0  0  0  0  0  0  0  0  0  0  0  0
    8.2423  -10.8096    0.0000 O   0  0  0  0  0  0  0  0  0  0  0  0
    9.6713   -9.9846    0.0000 O   0  0  0  0  0  0  0  0  0  0  0  0
    9.6713   -8.3346    0.0000 C   0  0  2  0  0  0  0  0  0  0  0  0
   10.3858   -8.7471    0.0000 C   0  0  0  0  0  0  0  0  0  0  0  0
   11.1003   -8.3346    0.0000 O   0  0  0  0  0  0  0  0  0  0  0  0
    9.6713   -7.5096    0.0000 O   0  0  0  0  0  0  0  0  0  0  0  0
  1  2  1  0  0  0  0
  1  3  1  0  0  0  0
  2  4  1  0  0  0  0
  3  5  1  0  0  0  0
  4  6  1  0  0  0  0
  5  6  1  0  0  0  0
  1  7  1  1  0  0  0
  2  8  1  6  0  0  0
  4  9  1  1  0  0  0
  6 10  1  6  0  0  0
  5 11  1  1  0  0  0
 12 11  1  0  0  0  0
 13 14  1  0  0  0  0
 13 15  1  0  0  0  0
 14 16  1  0  0  0  0
 17 15  1  1  0  0  0
 16 18  1  0  0  0  0
 17 18  1  0  0  0  0
 13 19  1  6  0  0  0
 14 20  1  1  0  0  0
 16 21  1  1  0  0  0
 18  7  1  6  0  0  0
 17 22  1  0  0  0  0
 23 22  1  0  0  0  0
 24 23  1  0  0  0  0
 22 25  1  6  0  0  0
 26 27  1  0  0  0  0
 26 28  1  0  0  0  0
 27 29  1  0  0  0  0
 30 28  1  6  0  0  0
 29 31  1  0  0  0  0
 30 31  1  0  0  0  0
 26 21  1  1  0  0  0
 27 32  1  6  0  0  0
 29 33  1  6  0  0  0
 31 34  1  1  0  0  0
 30 35  1  0  0  0  0
 36 35  1  0  0  0  0
 37 36  1  0  0  0  0
 35 38  1  1  0  0  0
M  END
> <ID>
CHEBI:59493

> <NAME>
beta-D-Glcp-(1->4)-[L-alpha-D-Hepp-(1->3)]-L-alpha-D-Hepp

> <DEFINITION>
A branched trisaccharide consisting of one D-glucose and two L-glycero-α-D-manno-heptopyranose residues (one at the reducing end), linked as shown.

> <STAR>
3

> <SYNONYM>
Glcbeta1-4(Hepalpha1-3)Hepalpha; beta-D-glucosyl-(1->4)-[L-glycero-alpha-D-manno-heptosyl-(1->3)]-L-glycero-alpha-D-manno-heptose; beta-D-Glc-(1->4)-[L-alpha-D-Hep-(1->3)]-L-alpha-D-Hep

> <IUPAC_NAME>
beta-D-glucopyranosyl-(1->4)-[L-glycero-alpha-D-manno-heptopyranosyl-(1->3)]-L-glycero-alpha-D-manno-heptopyranose

> <FORMULA>
C20H36O18

> <MASS>
564.48900

> <MONOISOTOPIC_MASS>
564.19016

> <CHARGE>
0

> <SMILES>
OC[C@H](O)[C@H]1O[C@H](O[C@@H]2[C@H](O)[C@@H](O)O[C@H]([C@@H](O)CO)[C@H]2O[C@@H]2O[C@H](CO)[C@@H](O)[C@H](O)[C@H]2O)[C@@H](O)[C@@H](O)[C@@H]1O

> <INCHI>
InChI=1S/C20H36O18/c21-1-4(24)14-10(29)9(28)12(31)20(36-14)37-16-13(32)18(33)35-15(5(25)2-22)17(16)38-19-11(30)8(27)7(26)6(3-23)34-19/h4-33H,1-3H2/t4-,5-,6+,7+,8-,9-,10-,11+,12-,13-,14+,15+,16+,17+,18-,19-,20+/m0/s1

> <INCHIKEY>
QEZRFXUHVYVTBG-WNGRHNMHSA-N

> <PUBMED_CITATION>
1910006

$$$$

Marvin  05171016292D          

 35 37  0  0  1  0            999 V2000
    9.1274   -5.5797    0.0000 C   0  0  1  0  0  0  0  0  0  0  0  0
    9.8419   -5.1672    0.0000 C   0  0  1  0  0  0  0  0  0  0  0  0
    9.1274   -6.4047    0.0000 O   0  0  0  0  0  0  0  0  0  0  0  0
   10.5565   -5.5797    0.0000 C   0  0  1  0  0  0  0  0  0  0  0  0
    9.8418   -6.8172    0.0000 C   0  0  2  0  0  0  0  0  0  0  0  0
   10.5563   -6.4046    0.0000 C   0  0  2  0  0  0  0  0  0  0  0  0
    9.8419   -4.3422    0.0000 O   0  0  0  0  0  0  0  0  0  0  0  0
   11.2709   -5.1672    0.0000 O   0  0  0  0  0  0  0  0  0  0  0  0
   11.2709   -6.8172    0.0000 O   0  0  0  0  0  0  0  0  0  0  0  0
    9.8418   -7.6422    0.0000 C   0  0  0  0  0  0  0  0  0  0  0  0
    8.4130   -5.1672    0.0000 O   0  0  0  0  0  0  0  0  0  0  0  0
    7.6984   -3.9297    0.0000 C   0  0  1  0  0  0  0  0  0  0  0  0
    7.6984   -4.7547    0.0000 C   0  0  1  0  0  0  0  0  0  0  0  0
    6.9840   -3.5172    0.0000 O   0  0  0  0  0  0  0  0  0  0  0  0
    6.9840   -5.1672    0.0000 C   0  0  1  0  0  0  0  0  0  0  0  0
    6.2696   -3.9297    0.0000 C   0  0  2  0  0  0  0  0  0  0  0  0
    6.2696   -4.7547    0.0000 C   0  0  2  0  0  0  0  0  0  0  0  0
    8.4130   -3.5172    0.0000 O   0  0  0  0  0  0  0  0  0  0  0  0
    6.9840   -5.9922    0.0000 O   0  0  0  0  0  0  0  0  0  0  0  0
    5.5552   -5.1672    0.0000 O   0  0  0  0  0  0  0  0  0  0  0  0
    5.5552   -3.5172    0.0000 C   0  0  0  0  0  0  0  0  0  0  0  0
    6.2696   -6.4047    0.0000 C   0  0  1  0  0  0  0  0  0  0  0  0
    6.2696   -7.2297    0.0000 C   0  0  1  0  0  0  0  0  0  0  0  0
    5.5549   -5.9922    0.0000 O   0  0  0  0  0  0  0  0  0  0  0  0
    5.5549   -7.6422    0.0000 C   0  0  2  0  0  0  0  0  0  0  0  0
    4.8405   -6.4047    0.0000 C   0  0  1  0  0  0  0  0  0  0  0  0
    4.8405   -7.2297    0.0000 C   0  0  1  0  0  0  0  0  0  0  0  0
    6.9840   -7.6422    0.0000 N   0  0  0  0  0  0  0  0  0  0  0  0
    5.5549   -8.4672    0.0000 O   0  0  0  0  0  0  0  0  0  0  0  0
    4.1259   -7.6422    0.0000 O   0  0  0  0  0  0  0  0  0  0  0  0
    4.1259   -5.9922    0.0000 C   0  0  0  0  0  0  0  0  0  0  0  0
    3.4115   -6.4047    0.0000 O   0  0  0  0  0  0  0  0  0  0  0  0
    6.9840   -8.4672    0.0000 C   0  0  0  0  0  0  0  0  0  0  0  0
    7.6984   -8.8797    0.0000 O   0  0  0  0  0  0  0  0  0  0  0  0
    6.2696   -8.8797    0.0000 C   0  0  0  0  0  0  0  0  0  0  0  0
  1  2  1  0  0  0  0
  1  3  1  0  0  0  0
  2  4  1  0  0  0  0
  3  5  1  0  0  0  0
  4  6  1  0  0  0  0
  5  6  1  0  0  0  0
  2  7  1  6  0  0  0
  4  8  1  6  0  0  0
  6  9  1  1  0  0  0
  5 10  1  6  0  0  0
  1 11  1  1  0  0  0
 12 13  1  0  0  0  0
 12 14  1  0  0  0  0
 13 15  1  0  0  0  0
 14 16  1  0  0  0  0
 15 17  1  0  0  0  0
 16 17  1  0  0  0  0
 12 18  1  1  0  0  0
 13 11  1  6  0  0  0
 15 19  1  6  0  0  0
 17 20  1  1  0  0  0
 16 21  1  6  0  0  0
 22 23  1  0  0  0  0
 22 24  1  0  0  0  0
 23 25  1  0  0  0  0
 24 26  1  0  0  0  0
 25 27  1  0  0  0  0
 26 27  1  0  0  0  0
 22 19  1  1  0  0  0
 23 28  1  6  0  0  0
 25 29  1  1  0  0  0
 27 30  1  6  0  0  0
 26 31  1  1  0  0  0
 32 31  1  0  0  0  0
 34 33  2  0  0  0  0
 35 33  1  0  0  0  0
 28 33  1  0  0  0  0
M  END
> <ID>
CHEBI:59502

> <NAME>
alpha-L-Rhap-(1->2)-[beta-D-GlcpNAc-(1->3)]-alpha-L-Rhap

> <DEFINITION>
A branched amino trisaccharide consisting of two α-L-rhamnose residues [linked (1→2); one at the reducing end] with a single N-acetyl β-D-glucosaminyl residue linked (1→3) to the reducing-end rhamnose.

> <STAR>
3

> <SYNONYM>
Rhaalpha1-2(GlcNacbeta1-3)Rhaalpha; N-acetyl-beta-D-glucosaminyl-(1->3)-[alpha-L-rhamnosyl-(1->2)]-alpha-L-rhamnose; GlcNacbeta1-3(Rhaalpha1-2)Rhaalpha; GAS CWPS Trisaccharide; beta-D-GlcNAc-(1->3)-[alpha-L-Rha-(1->2)]-alpha-L-Rha; alpha-L-Rha-(1->2)-[beta-D-GlcNAc-(1->3)]-alpha-L-Rha; 2-acetamido-2-deoxy-beta-D-glucopyranosyl-(1->3)-[6-deoxy-alpha-L-mannopyranosyl-(1->2)]-6-deoxy-alpha-L-mannopyranose

> <IUPAC_NAME>
2-acetamido-2-deoxy-beta-D-glucopyranosyl-(1->3)-[alpha-L-rhamnopyranosyl-(1->2)]-alpha-L-rhamnopyranose

> <FORMULA>
C20H35NO14

> <MASS>
513.49020

> <MONOISOTOPIC_MASS>
513.20575

> <CHARGE>
0

> <SMILES>
C[C@@H]1O[C@@H](O[C@H]2[C@H](O)O[C@@H](C)[C@H](O)[C@H]2O[C@@H]2O[C@H](CO)[C@@H](O)[C@H](O)[C@H]2NC(C)=O)[C@H](O)[C@H](O)[C@H]1O

> <INCHI>
InChI=1S/C20H35NO14/c1-5-10(24)14(28)15(29)20(32-5)35-17-16(11(25)6(2)31-18(17)30)34-19-9(21-7(3)23)13(27)12(26)8(4-22)33-19/h5-6,8-20,22,24-30H,4H2,1-3H3,(H,21,23)/t5-,6-,8+,9+,10-,11-,12+,13+,14+,15+,16+,17+,18+,19-,20-/m0/s1

> <INCHIKEY>
ZRUFHJNSWADTKP-BJRZJUBRSA-N

> <PUBMED_CITATION>
12487612; 1423345; 16177309

$$$$

Marvin  05171016482D          

 35 37  0  0  1  0            999 V2000
   14.7738   -3.5459    0.0000 C   0  0  1  0  0  0  0  0  0  0  0  0
   14.7738   -4.3709    0.0000 C   0  0  1  0  0  0  0  0  0  0  0  0
   14.0592   -3.1334    0.0000 O   0  0  0  0  0  0  0  0  0  0  0  0
   14.0593   -4.7834    0.0000 C   0  0  1  0  0  0  0  0  0  0  0  0
   13.3448   -3.5459    0.0000 C   0  0  2  0  0  0  0  0  0  0  0  0
   13.3449   -4.3709    0.0000 C   0  0  2  0  0  0  0  0  0  0  0  0
   15.4882   -4.7834    0.0000 O   0  0  0  0  0  0  0  0  0  0  0  0
   14.0593   -5.6084    0.0000 O   0  0  0  0  0  0  0  0  0  0  0  0
   12.6304   -4.7834    0.0000 O   0  0  0  0  0  0  0  0  0  0  0  0
   12.6304   -3.1334    0.0000 C   0  0  0  0  0  0  0  0  0  0  0  0
   13.3448   -6.0209    0.0000 C   0  0  1  0  0  0  0  0  0  0  0  0
   13.3448   -6.8459    0.0000 C   0  0  1  0  0  0  0  0  0  0  0  0
   12.6304   -5.6084    0.0000 O   0  0  0  0  0  0  0  0  0  0  0  0
   12.6304   -7.2585    0.0000 C   0  0  1  0  0  0  0  0  0  0  0  0
   11.9159   -6.0209    0.0000 C   0  0  2  0  0  0  0  0  0  0  0  0
   11.9159   -6.8459    0.0000 C   0  0  2  0  0  0  0  0  0  0  0  0
   14.0593   -7.2584    0.0000 O   0  0  0  0  0  0  0  0  0  0  0  0
   12.6303   -8.0834    0.0000 O   0  0  0  0  0  0  0  0  0  0  0  0
   11.2015   -7.2584    0.0000 O   0  0  0  0  0  0  0  0  0  0  0  0
   11.2015   -5.6084    0.0000 C   0  0  0  0  0  0  0  0  0  0  0  0
   15.4882   -3.1334    0.0000 O   0  0  0  0  0  0  0  0  0  0  0  0
   11.9159   -8.4959    0.0000 C   0  0  1  0  0  0  0  0  0  0  0  0
   11.9159   -9.3209    0.0000 C   0  0  1  0  0  0  0  0  0  0  0  0
   11.2013   -8.0834    0.0000 O   0  0  0  0  0  0  0  0  0  0  0  0
   11.2013   -9.7333    0.0000 C   0  0  2  0  0  0  0  0  0  0  0  0
   10.4869   -8.4959    0.0000 C   0  0  1  0  0  0  0  0  0  0  0  0
   10.4869   -9.3209    0.0000 C   0  0  1  0  0  0  0  0  0  0  0  0
   12.6303   -9.7334    0.0000 N   0  0  0  0  0  0  0  0  0  0  0  0
   11.2013  -10.5584    0.0000 O   0  0  0  0  0  0  0  0  0  0  0  0
    9.7723   -9.7334    0.0000 O   0  0  0  0  0  0  0  0  0  0  0  0
    9.7725   -8.0834    0.0000 C   0  0  0  0  0  0  0  0  0  0  0  0
    9.0579   -8.4959    0.0000 O   0  0  0  0  0  0  0  0  0  0  0  0
   12.6303  -10.5584    0.0000 C   0  0  0  0  0  0  0  0  0  0  0  0
   13.3448  -10.9709    0.0000 O   0  0  0  0  0  0  0  0  0  0  0  0
   11.9158  -10.9709    0.0000 C   0  0  0  0  0  0  0  0  0  0  0  0
  1  2  1  0  0  0  0
  1  3  1  0  0  0  0
  2  4  1  0  0  0  0
  3  5  1  0  0  0  0
  4  6  1  0  0  0  0
  5  6  1  0  0  0  0
  2  7  1  6  0  0  0
  4  8  1  6  0  0  0
  6  9  1  1  0  0  0
  5 10  1  6  0  0  0
 11 12  1  0  0  0  0
 11 13  1  0  0  0  0
 12 14  1  0  0  0  0
 13 15  1  0  0  0  0
 14 16  1  0  0  0  0
 15 16  1  0  0  0  0
 11  8  1  1  0  0  0
 12 17  1  6  0  0  0
 14 18  1  6  0  0  0
 16 19  1  1  0  0  0
 15 20  1  6  0  0  0
  1 21  1  1  0  0  0
 22 23  1  0  0  0  0
 22 24  1  0  0  0  0
 23 25  1  0  0  0  0
 24 26  1  0  0  0  0
 25 27  1  0  0  0  0
 26 27  1  0  0  0  0
 22 18  1  1  0  0  0
 23 28  1  6  0  0  0
 25 29  1  1  0  0  0
 27 30  1  6  0  0  0
 26 31  1  1  0  0  0
 32 31  1  0  0  0  0
 34 33  2  0  0  0  0
 35 33  1  0  0  0  0
 28 33  1  0  0  0  0
M  END
> <ID>
CHEBI:59503

> <NAME>
beta-D-GlcpNAc-(1->3)-alpha-L-Rhap-(1->3)-alpha-L-Rhap

> <DEFINITION>
A linear amino trisaccharide consisting of two adjacent α-L-rhamnose residues (one at the reducing end) and a single N-acetyl β-D-glucosaminyl residue joined to each other via (1→3)-linkages.

> <STAR>
3

> <SYNONYM>
N-acetyl-beta-D-glucosaminyl-(1->3)-alpha-L-rhamnosyl-(1->3)-alpha-L-rhamnose; GlcNAcbeta1-3Rhaalpha1-3Rhaalpha; beta-D-GlcNAc-(1->3)-alpha-L-Rha-(1->3)-alpha-L-Rha; 2-acetamido-2-deoxy-beta-D-glucopyranosyl-(1->3)-6-deoxy-alpha-L-mannopyranosyl-(1->3)-6-deoxy-alpha-L-mannopyranose

> <IUPAC_NAME>
2-acetamido-2-deoxy-beta-D-glucopyranosyl-(1->3)-alpha-L-rhamnopyranosyl-(1->3)-alpha-L-rhamnopyranose

> <FORMULA>
C20H35NO14

> <MASS>
513.49020

> <MONOISOTOPIC_MASS>
513.20575

> <CHARGE>
0

> <SMILES>
C[C@@H]1O[C@@H](O)[C@H](O)[C@H](O[C@@H]2O[C@@H](C)[C@H](O)[C@@H](O[C@@H]3O[C@H](CO)[C@@H](O)[C@H](O)[C@H]3NC(C)=O)[C@H]2O)[C@H]1O

> <INCHI>
InChI=1S/C20H35NO14/c1-5-10(24)16(14(28)18(30)31-5)35-20-15(29)17(11(25)6(2)32-20)34-19-9(21-7(3)23)13(27)12(26)8(4-22)33-19/h5-6,8-20,22,24-30H,4H2,1-3H3,(H,21,23)/t5-,6-,8+,9+,10-,11-,12+,13+,14+,15+,16+,17+,18+,19-,20-/m0/s1

> <INCHIKEY>
MRZLCZVJQAILHQ-BJRZJUBRSA-N

$$$$

Marvin  02071116552D          

 38 42  0  0  1  0            999 V2000
    8.7549   -1.6878    0.0000 C   0  0  2  0  0  0  0  0  0  0  0  0
    9.0273   -0.9090    0.0000 C   0  0  0  0  0  0  0  0  0  0  0  0
    9.1130   -2.4311    0.0000 C   0  0  1  0  0  0  0  0  0  0  0  0
    9.8917   -2.7033    0.0000 O   0  0  0  0  0  0  0  0  0  0  0  0
    9.7704   -0.5510    0.0000 C   0  0  0  0  0  0  0  0  0  0  0  0
   10.6349   -2.3453    0.0000 C   0  0  1  0  0  0  0  0  0  0  0  0
   10.5492   -0.8234    0.0000 C   0  0  0  0  0  0  0  0  0  0  0  0
   10.9073   -1.5666    0.0000 C   0  0  2  0  0  0  0  0  0  0  0  0
    7.3056   -2.8438    0.0000 C   0  0  2  0  0  0  0  0  0  0  0  0
    7.3056   -2.0187    0.0000 C   0  0  2  0  0  0  0  0  0  0  0  0
    6.5912   -3.2563    0.0000 O   0  0  0  0  0  0  0  0  0  0  0  0
    5.8767   -2.8438    0.0000 C   0  0  2  0  0  0  0  0  0  0  0  0
    6.5910   -1.6063    0.0000 C   0  0  0  0  0  0  0  0  0  0  0  0
    5.8767   -2.0188    0.0000 C   0  0  1  0  0  0  0  0  0  0  0  0
    5.1623   -3.2563    0.0000 C   0  0  1  0  0  0  0  0  0  0  0  0
    4.4478   -2.8438    0.0000 C   0  0  2  0  0  0  0  0  0  0  0  0
    5.1622   -1.6065    0.0000 O   0  0  0  0  0  0  0  0  0  0  0  0
    4.4478   -2.0190    0.0000 C   0  0  1  0  0  0  0  0  0  0  0  0
    3.0533   -3.1282    0.0000 C   0  0  0  0  0  0  0  0  0  0  0  0
    2.6413   -2.4284    0.0000 C   0  0  0  0  0  0  0  0  0  0  0  0
    3.8020   -3.3573    0.0000 O   0  0  0  0  0  0  0  0  0  0  0  0
    3.0006   -1.6855    0.0000 C   0  0  0  0  0  0  0  0  0  0  0  0
    3.8051   -1.5034    0.0000 C   0  0  0  0  0  0  0  0  0  0  0  0
    4.4272   -3.7981    0.0000 H   0  0  0  0  0  0  0  0  0  0  0  0
    5.9225   -3.7228    0.0000 H   0  0  0  0  0  0  0  0  0  0  0  0
    5.2013   -4.1162    0.0000 O   0  0  0  0  0  0  0  0  0  0  0  0
    4.3837   -1.1213    0.0000 H   0  0  0  0  0  0  0  0  0  0  0  0
    5.8735   -1.1003    0.0000 H   0  0  0  0  0  0  0  0  0  0  0  0
    7.9507   -3.3580    0.0000 C   0  0  0  0  0  0  0  0  0  0  0  0
    7.9506   -1.5043    0.0000 O   0  0  0  0  0  0  0  0  0  0  0  0
    8.7550   -3.1744    0.0000 C   0  0  0  0  0  0  0  0  0  0  0  0
    7.3056   -1.1937    0.0000 H   0  0  0  0  0  0  0  0  0  0  0  0
    7.3056   -3.6688    0.0000 H   0  0  0  0  0  0  0  0  0  0  0  0
   11.7310   -1.5202    0.0000 O   0  0  0  0  0  0  0  0  0  0  0  0
   11.2501   -2.8949    0.0000 C   0  0  0  0  0  0  0  0  0  0  0  0
   11.0817   -3.7026    0.0000 O   0  0  0  0  0  0  0  0  0  0  0  0
    8.3424   -0.9734    0.0000 H   0  0  0  0  0  0  0  0  0  0  0  0
    9.5255   -3.1455    0.0000 H   0  0  0  0  0  0  0  0  0  0  0  0
  2  1  1  0  0  0  0
  5  2  1  0  0  0  0
  4  3  1  0  0  0  0
  6  4  1  0  0  0  0
  7  5  2  0  0  0  0
  8  6  1  0  0  0  0
  8  7  1  0  0  0  0
 11  9  1  0  0  0  0
 12 11  1  0  0  0  0
 13 10  1  0  0  0  0
 14 13  1  0  0  0  0
 15 12  1  0  0  0  0
 14 12  1  0  0  0  0
 16 15  1  0  0  0  0
 17 14  1  0  0  0  0
 18 17  1  0  0  0  0
 20 19  1  0  0  0  0
 21 19  1  0  0  0  0
 22 20  2  0  0  0  0
 16 21  1  0  0  0  0
 23 22  1  0  0  0  0
 18 16  1  0  0  0  0
 23 18  1  0  0  0  0
 16 24  1  6  0  0  0
 12 25  1  6  0  0  0
 15 26  1  6  0  0  0
 18 27  1  1  0  0  0
 14 28  1  1  0  0  0
 10  9  1  0  0  0  0
 29  9  1  0  0  0  0
 30 10  1  0  0  0  0
 31 29  2  0  0  0  0
  1 30  1  0  0  0  0
  3 31  1  0  0  0  0
  1  3  1  0  0  0  0
 10 32  1  1  0  0  0
  9 33  1  6  0  0  0
  8 34  1  6  0  0  0
  6 35  1  1  0  0  0
 35 36  1  0  0  0  0
  1 37  1  1  0  0  0
  3 38  1  6  0  0  0
M  END
> <ID>
CHEBI:59526

> <NAME>
(4Z)-2,8:7,12:11,15:14,18:17,22-pentaanhydro-4,5,6,9,10,13,19,20,21-nonadeoxy-L-arabino-L-allo-L-allo-docosa-4,9,20-trienitol

> <DEFINITION>
A trans-fused organic heteropentacyclic compound consisting of an oxacyclooctene, an oxepane, two pyrans and a further oxepane ring fused in a linear sequence.

> <STAR>
3

> <SECONDARY_ID>
CHEBI:61262

> <IUPAC_NAME>
(4Z)-2,8:7,12:11,15:14,18:17,22-pentaanhydro-4,5,6,9,10,13,19,20,21-nonadeoxy-L-arabino-L-allo-L-allo-docosa-4,9,20-trienitol

> <FORMULA>
C22H30O8

> <MASS>
422.46880

> <MONOISOTOPIC_MASS>
422.19407

> <CHARGE>
0

> <SMILES>
[H][C@@]12C\C=C/[C@H](O)[C@@H](CO)O[C@@]1([H])C=C[C@@]1([H])O[C@@]3([H])[C@H](O)[C@@]4([H])OCC=CC[C@]4([H])O[C@]3([H])C[C@]1([H])O2

> <INCHI>
InChI=1S/C22H30O8/c23-11-19-12(24)4-3-6-13-14(28-19)7-8-15-17(27-13)10-18-22(30-15)20(25)21-16(29-18)5-1-2-9-26-21/h1-4,7-8,12-25H,5-6,9-11H2/b4-3-/t12-,13+,14-,15+,16-,17-,18+,19+,20+,21-,22+/m0/s1

> <INCHIKEY>
VDRIXSJOPKVWKM-HXGIDPQASA-N

> <BEILSTEIN_REGISTRY_NUMBER>
9446412

> <REAXYS_REGISTRY_NUMBER>
9446412

> <PDB_ACCESSION>
2Z92

> <PDBECHEM_ACCESSION>
ENE

> <PUBMED_CITATION>
12812503; 18463096; 19523973

$$$$

Marvin  05251014322D          

 17 18  0  0  1  0            999 V2000
   11.1247   -7.4317    0.0000 C   0  0  0  0  0  0  0  0  0  0  0  0
   11.5372   -6.7173    0.0000 N   0  3  2  0  0  0  0  0  0  0  0  0
   11.9498   -7.4317    0.0000 O   0  5  0  0  0  0  0  0  0  0  0  0
   12.2517   -6.3047    0.0000 C   0  0  0  0  0  0  0  0  0  0  0  0
   12.2517   -5.4797    0.0000 C   0  0  0  0  0  0  0  0  0  0  0  0
   11.5373   -5.0672    0.0000 C   0  0  2  0  0  0  0  0  0  0  0  0
   10.8228   -5.4797    0.0000 C   0  0  0  0  0  0  0  0  0  0  0  0
   10.8228   -6.3048    0.0000 C   0  0  0  0  0  0  0  0  0  0  0  0
   11.5373   -4.2422    0.0000 Si  0  0  0  0  0  0  0  0  0  0  0  0
   10.8228   -3.8297    0.0000 C   0  0  0  0  0  0  0  0  0  0  0  0
   10.1084   -2.5922    0.0000 C   0  0  0  0  0  0  0  0  0  0  0  0
    9.3939   -3.0047    0.0000 C   0  0  0  0  0  0  0  0  0  0  0  0
    9.3939   -3.8297    0.0000 C   0  0  0  0  0  0  0  0  0  0  0  0
   10.1084   -4.2422    0.0000 C   0  0  0  0  0  0  0  0  0  0  0  0
   10.8228   -3.0047    0.0000 C   0  0  0  0  0  0  0  0  0  0  0  0
   12.1207   -3.6588    0.0000 C   0  0  0  0  0  0  0  0  0  0  0  0
   12.2518   -4.6547    0.0000 C   0  0  0  0  0  0  0  0  0  0  0  0
  1  2  1  0  0  0  0
  2  3  1  6  0  0  0
  2  4  1  0  0  0  0
  2  8  1  0  0  0  0
  4  5  1  0  0  0  0
  5  6  1  0  0  0  0
  6  7  1  0  0  0  0
  7  8  1  0  0  0  0
  6  9  1  6  0  0  0
  9 10  1  0  0  0  0
 14 10  2  0  0  0  0
 10 15  1  0  0  0  0
 11 12  1  0  0  0  0
 12 13  2  0  0  0  0
 13 14  1  0  0  0  0
 11 15  2  0  0  0  0
  9 16  1  0  0  0  0
  9 17  1  0  0  0  0
M  CHG  2   2   1   3  -1
M  END
> <ID>
CHEBI:59555

> <NAME>
trans-4-(dimethylphenylsilyl)-N-methylpiperidine N-oxide

> <DEFINITION>
A piperidine N-oxide having a dimethylphenylsilyl substituent at the 4-position.

> <STAR>
3

> <SYNONYM>
trans-4-[dimethyl(phenyl)silyl]-1-methylpiperidine 1-oxide; trans-4-(dimethylphenylsilyl)-N-methylpiperidine-N-oxide

> <IUPAC_NAME>
(1s,4s)-4-[dimethyl(phenyl)silyl]-1-methyl-1-oxo-1lambda(5)-piperidine

> <FORMULA>
C14H23NOSi

> <MASS>
249.42400

> <MONOISOTOPIC_MASS>
249.15489

> <CHARGE>
0

> <SMILES>
C[N@@+]1([O-])CC[C@@H](CC1)[Si](C)(C)c1ccccc1

> <INCHI>
InChI=1S/C14H23NOSi/c1-15(16)11-9-14(10-12-15)17(2,3)13-7-5-4-6-8-13/h4-8,14H,9-12H2,1-3H3/t14-,15+

> <INCHIKEY>
HDJXTRKZEHHECC-GASCZTMLSA-N

> <PDB_ACCESSION>
1ND0

> <PUBMED_CITATION>
12742019

$$$$

Marvin  06031010442D          

 23 24  0  0  1  0            999 V2000
    6.5982   -3.9660    0.0000 C   0  0  1  0  0  0  0  0  0  0  0  0
    6.5982   -4.7910    0.0000 C   0  0  1  0  0  0  0  0  0  0  0  0
    5.8837   -3.5535    0.0000 O   0  0  0  0  0  0  0  0  0  0  0  0
    5.8837   -5.2035    0.0000 C   0  0  2  0  0  0  0  0  0  0  0  0
    5.1693   -3.9660    0.0000 C   0  0  1  0  0  0  0  0  0  0  0  0
    5.1693   -4.7910    0.0000 C   0  0  2  0  0  0  0  0  0  0  0  0
    7.3127   -3.5535    0.0000 O   0  0  0  0  0  0  0  0  0  0  0  0
    7.3127   -5.2035    0.0000 O   0  0  0  0  0  0  0  0  0  0  0  0
    5.8837   -6.0285    0.0000 O   0  0  0  0  0  0  0  0  0  0  0  0
    4.4548   -5.2035    0.0000 O   0  0  0  0  0  0  0  0  0  0  0  0
    4.4548   -3.5535    0.0000 C   0  0  0  0  0  0  0  0  0  0  0  0
    3.7403   -3.9660    0.0000 O   0  0  0  0  0  0  0  0  0  0  0  0
    9.4561   -2.3160    0.0000 C   0  0  0  0  0  0  0  0  0  0  0  0
    9.4561   -3.1410    0.0000 C   0  0  2  0  0  0  0  0  0  0  0  0
    8.7416   -1.9035    0.0000 O   0  0  0  0  0  0  0  0  0  0  0  0
    8.7416   -3.5535    0.0000 C   0  0  2  0  0  0  0  0  0  0  0  0
    8.0272   -2.3160    0.0000 C   0  0  1  0  0  0  0  0  0  0  0  0
    8.0272   -3.1410    0.0000 C   0  0  1  0  0  0  0  0  0  0  0  0
   10.1706   -1.9035    0.0000 O   0  0  0  0  0  0  0  0  0  0  0  0
   10.1706   -3.5535    0.0000 O   0  0  0  0  0  0  0  0  0  0  0  0
    8.7416   -4.3785    0.0000 O   0  0  0  0  0  0  0  0  0  0  0  0
    7.3127   -1.9035    0.0000 C   0  0  0  0  0  0  0  0  0  0  0  0
    6.5982   -2.3160    0.0000 O   0  0  0  0  0  0  0  0  0  0  0  0
  1  2  1  0  0  0  0
  1  3  1  0  0  0  0
  2  4  1  0  0  0  0
  3  5  1  0  0  0  0
  4  6  1  0  0  0  0
  5  6  1  0  0  0  0
  1  7  1  1  0  0  0
  2  8  1  6  0  0  0
  4  9  1  1  0  0  0
  6 10  1  1  0  0  0
  5 11  1  1  0  0  0
 12 11  1  0  0  0  0
 13 14  1  0  0  0  0
 13 15  1  0  0  0  0
 14 16  1  0  0  0  0
 15 17  1  0  0  0  0
 16 18  1  0  0  0  0
 17 18  1  0  0  0  0
 13 19  1  0  0  0  0
 14 20  1  1  0  0  0
 16 21  1  1  0  0  0
 18  7  1  6  0  0  0
 17 22  1  1  0  0  0
 23 22  1  0  0  0  0
M  END
> <ID>
CHEBI:59563

> <NAME>
beta-D-Gal-(1->4)-D-Man

> <DEFINITION>
A glycosylmannose comprising a β-D-galactopyranose residue in (1→4) linkage with D-mannopyranose; which can inhibit Leishmania major glycoinositol phospholipid binding by sera from patients with acute cutaneous leishmaniasis.

> <STAR>
3

> <SYNONYM>
Galbeta1-4Man; beta-Galp-(1->4)-Manp; beta-galactopyranosyl-(1->4)-mannopyranose; beta-D-Galp-(1->4)-D-Manp; beta-D-galactosyl-(1->4)-D-mannose; 4-O-beta-D-galactopyranosyl-D-mannopyranose

> <IUPAC_NAME>
beta-D-galactopyranosyl-(1->4)-D-mannopyranose

> <FORMULA>
C12H22O11

> <MASS>
342.29650

> <MONOISOTOPIC_MASS>
342.11621

> <CHARGE>
0

> <SMILES>
OC[C@H]1O[C@@H](O[C@@H]2[C@@H](CO)OC(O)[C@@H](O)[C@H]2O)[C@H](O)[C@@H](O)[C@H]1O

> <INCHI>
InChI=1S/C12H22O11/c13-1-3-5(15)6(16)9(19)12(22-3)23-10-4(2-14)21-11(20)8(18)7(10)17/h3-20H,1-2H2/t3-,4-,5+,6+,7-,8+,9-,10-,11?,12+/m1/s1

> <INCHIKEY>
GUBGYTABKSRVRQ-GAQSDDIXSA-N

> <REAXYS_REGISTRY_NUMBER>
3594391

> <PUBMED_CITATION>
1719024; 19913595

$$$$

Ketcher 12311616592D 1   1.00000     0.00000     0

 24 24  0     0  0            999 V2000
    0.7857   -0.9642    0.0000 C   0  0  0  0  0  0  0  0  0  0  0  0
    1.6517   -0.4642    0.0000 C   0  0  0  0  0  0  0  0  0  0  0  0
    2.5178   -0.9642    0.0000 O   0  0  0  0  0  0  0  0  0  0  0  0
    1.6517    0.5358    0.0000 O   0  0  0  0  0  0  0  0  0  0  0  0
   -0.0804   -0.4642    0.0000 N   0  0  0  0  0  0  0  0  0  0  0  0
    0.7857   -1.9642    0.0000 C   0  0  0  0  0  0  0  0  0  0  0  0
   -0.9463   -0.9642    0.0000 C   0  0  0  0  0  0  0  0  0  0  0  0
   -1.8124   -0.4642    0.0000 C   0  0  0  0  0  0  0  0  0  0  0  0
   -0.9463   -1.9642    0.0000 O   0  0  0  0  0  0  0  0  0  0  0  0
   -2.6784   -0.9642    0.0000 C   0  0  0  0  0  0  0  0  0  0  0  0
   -3.5443   -0.4642    0.0000 C   0  0  0  0  0  0  0  0  0  0  0  0
   -4.4104   -0.9642    0.0000 P   0  0  0  0  0  0  0  0  0  0  0  0
   -5.2765   -0.4642    0.0000 O   0  0  0  0  0  0  0  0  0  0  0  0
   -6.1425   -0.9642    0.0000 C   0  0  0  0  0  0  0  0  0  0  0  0
   -7.0084   -0.4642    0.0000 C   0  0  0  0  0  0  0  0  0  0  0  0
   -7.8745   -0.9642    0.0000 C   0  0  0  0  0  0  0  0  0  0  0  0
   -7.8745   -1.9644    0.0000 C   0  0  0  0  0  0  0  0  0  0  0  0
   -7.0084   -2.4643    0.0000 C   0  0  0  0  0  0  0  0  0  0  0  0
   -6.1425   -1.9644    0.0000 C   0  0  0  0  0  0  0  0  0  0  0  0
   -4.4104   -1.9642    0.0000 O   0  0  0  0  0  0  0  0  0  0  0  0
   -4.6692    0.0017    0.0000 O   0  0  0  0  0  0  0  0  0  0  0  0
   -8.7406   -2.4642    0.0000 N   0  0  0  0  0  0  0  0  0  0  0  0
   -8.7406   -3.4642    0.0000 O   0  0  0  0  0  0  0  0  0  0  0  0
   -9.6065   -1.9642    0.0000 O   0  0  0  0  0  0  0  0  0  0  0  0
  1  2  1  0     0  0
  2  3  1  0     0  0
  2  4  2  0     0  0
  1  5  1  0     0  0
  1  6  1  6     0  0
  5  7  1  0     0  0
  7  8  1  0     0  0
  7  9  2  0     0  0
  8 10  1  0     0  0
 10 11  1  0     0  0
 11 12  1  0     0  0
 12 13  1  0     0  0
 13 14  1  0     0  0
 19 14  2  0     0  0
 15 14  1  0     0  0
 15 16  2  0     0  0
 16 17  1  0     0  0
 17 18  2  0     0  0
 18 19  1  0     0  0
 12 20  2  0     0  0
 12 21  1  0     0  0
 17 22  1  0     0  0
 22 23  2  0     0  0
 22 24  1  0     0  0
M  CHG  2  22   1  24  -1
M  END
> <ID>
CHEBI:59565

> <NAME>
N-[4-(4-nitrophenylphospho)butanoyl]-L-alanine

> <DEFINITION>
An N-[4-(4-nitrophenylphospho)butanoyl]alanine that has S at the chiral carbon.

> <STAR>
3

> <SYNONYM>
p-nitrophenyl phosphonobutanoyl L-alanine; N-[4-(4-nitrophenylphospho)butyryl]-L-alanine

> <IUPAC_NAME>
N-{4-[hydroxy(4-nitrophenoxy)phosphoryl]butanoyl}-L-alanine

> <FORMULA>
C13H17N2O8P

> <MASS>
360.257

> <MONOISOTOPIC_MASS>
360.07225

> <CHARGE>
0

> <SMILES>
[C@H](C(O)=O)(NC(CCCP(OC1=CC=C(C=C1)[N+](=O)[O-])(=O)O)=O)C

> <INCHI>
InChI=1S/C13H17N2O8P/c1-9(13(17)18)14-12(16)3-2-8-24(21,22)23-11-6-4-10(5-7-11)15(19)20/h4-7,9H,2-3,8H2,1H3,(H,14,16)(H,17,18)(H,21,22)/t9-/m0/s1

> <INCHIKEY>
KBXXIYHMPQZHCH-VIFPVBQESA-N

> <BEILSTEIN_REGISTRY_NUMBER>
9151198

> <REAXYS_REGISTRY_NUMBER>
9151198

> <PDB_ACCESSION>
1KN2

> <PDBECHEM_ACCESSION>
PNE

> <PUBMED_CITATION>
11878955

$$$$

Marvin  06031014232D          

 39 40  0  0  1  0            999 V2000
   11.7704   -4.0303    0.0000 O   0  0  0  0  0  0  0  0  0  0  0  0
   11.0559   -4.4428    0.0000 C   0  0  2  0  0  0  0  0  0  0  0  0
   11.0559   -5.2677    0.0000 C   0  0  1  0  0  0  0  0  0  0  0  0
   11.7704   -5.6802    0.0000 C   0  0  2  0  0  0  0  0  0  0  0  0
   12.4848   -5.2677    0.0000 C   0  0  0  0  0  0  0  0  0  0  0  0
   11.7703   -6.5051    0.0000 O   0  0  0  0  0  0  0  0  0  0  0  0
   10.3415   -4.0301    0.0000 C   0  0  1  0  0  0  0  0  0  0  0  0
    9.6270   -4.4426    0.0000 C   0  0  1  0  0  0  0  0  0  0  0  0
   10.3416   -3.2052    0.0000 O   0  0  0  0  0  0  0  0  0  0  0  0
    8.9126   -4.0301    0.0000 C   0  0  0  0  0  0  0  0  0  0  0  0
    9.6270   -5.2676    0.0000 O   0  0  0  0  0  0  0  0  0  0  0  0
    8.1983   -4.4426    0.0000 O   0  0  0  0  0  0  0  0  0  0  0  0
   11.0560   -3.6178    0.0000 H   0  0  0  0  0  0  0  0  0  0  0  0
   12.4848   -4.4428    0.0000 C   0  0  1  0  0  0  0  0  0  0  0  0
   10.3415   -5.6801    0.0000 N   0  0  0  0  0  0  0  0  0  0  0  0
   11.0560   -6.9176    0.0000 C   0  0  0  0  0  0  0  0  0  0  0  0
   10.3415   -6.5051    0.0000 C   0  0  0  0  0  0  0  0  0  0  0  0
    9.6270   -6.9176    0.0000 O   0  0  0  0  0  0  0  0  0  0  0  0
   13.3194   -4.8606    0.0000 O   0  0  0  0  0  0  0  0  0  0  0  0
   12.8759   -3.7164    0.0000 C   0  0  0  0  0  0  0  0  0  0  0  0
   12.4425   -3.0144    0.0000 O   0  0  0  0  0  0  0  0  0  0  0  0
   13.7006   -3.6919    0.0000 O   0  0  0  0  0  0  0  0  0  0  0  0
   16.1773   -4.8606    0.0000 C   0  0  0  0  0  0  0  0  0  0  0  0
   16.1773   -5.6856    0.0000 C   0  0  1  0  0  0  0  0  0  0  0  0
   15.4628   -4.4481    0.0000 O   0  0  0  0  0  0  0  0  0  0  0  0
   15.4628   -6.0981    0.0000 C   0  0  2  0  0  0  0  0  0  0  0  0
   14.7483   -4.8606    0.0000 C   0  0  1  0  0  0  0  0  0  0  0  0
   14.7483   -5.6856    0.0000 C   0  0  2  0  0  0  0  0  0  0  0  0
   16.8918   -4.4481    0.0000 O   0  0  0  0  0  0  0  0  0  0  0  0
   16.8918   -6.0981    0.0000 N   0  0  0  0  0  0  0  0  0  0  0  0
   15.4628   -6.9231    0.0000 O   0  0  0  0  0  0  0  0  0  0  0  0
   14.0339   -6.0981    0.0000 O   0  0  0  0  0  0  0  0  0  0  0  0
   14.0339   -4.4481    0.0000 C   0  0  0  0  0  0  0  0  0  0  0  0
    7.4838   -4.0300    0.0000 C   0  0  0  0  0  0  0  0  0  0  0  0
    7.4838   -3.2050    0.0000 O   0  0  0  0  0  0  0  0  0  0  0  0
    6.7693   -4.4425    0.0000 C   0  0  0  0  0  0  0  0  0  0  0  0
   17.6063   -5.6856    0.0000 C   0  0  0  0  0  0  0  0  0  0  0  0
   17.6063   -4.8606    0.0000 O   0  0  0  0  0  0  0  0  0  0  0  0
   18.3207   -6.0981    0.0000 C   0  0  0  0  0  0  0  0  0  0  0  0
  2  1  1  0  0  0  0
  2  7  1  0  0  0  0
  2 13  1  1  0  0  0
  2  3  1  0  0  0  0
  3 15  1  1  0  0  0
  3  4  1  0  0  0  0
  4  6  1  6  0  0  0
  4  5  1  0  0  0  0
 14  1  1  0  0  0  0
 14  5  1  0  0  0  0
  7  8  1  0  0  0  0
  7  9  1  1  0  0  0
  8 10  1  0  0  0  0
  8 11  1  6  0  0  0
 10 12  1  0  0  0  0
 15 17  1  0  0  0  0
 17 16  1  0  0  0  0
 17 18  2  0  0  0  0
 14 19  1  6  0  0  0
 21 20  2  0  0  0  0
 22 20  1  0  0  0  0
 14 20  1  0  0  0  0
 23 24  1  0  0  0  0
 23 25  1  0  0  0  0
 24 26  1  0  0  0  0
 25 27  1  0  0  0  0
 26 28  1  0  0  0  0
 27 28  1  0  0  0  0
 23 29  1  0  0  0  0
 24 30  1  6  0  0  0
 26 31  1  1  0  0  0
 28 32  1  1  0  0  0
 27 33  1  1  0  0  0
 19 33  1  0  0  0  0
 35 34  2  0  0  0  0
 36 34  1  0  0  0  0
 12 34  1  0  0  0  0
 38 37  2  0  0  0  0
 39 37  1  0  0  0  0
 30 37  1  0  0  0  0
M  END
> <ID>
CHEBI:59571

> <NAME>
alpha-Neu9,NAc2-(2->6)-GalNAc

> <DEFINITION>
An amino disaccharide consisting of an N-acetylglucosamine having an N-acetyl-9-O-acetylneuraminic acid attached via an α-(2→6)-linkage.

> <STAR>
3

> <SYNONYM>
alpha-Neup9,NAc2-(2->6)-D-GalNAc; alpha-9-Ac-NeuNAc-(2->6)-GalpNAc; alpha-9-Ac-NeuNAc-(2->6)-GalNAc; 9-OAcSA-alpha-(2->6)-GalpNAc; 9-OAcSA-alpha-(2->6)-GalNAc; 2-acetamido-6-O-(5-acetamido-9-O-acetyl-3,5-dideoxy-D-glycero-alpha-D-galacto-non-2-ulopyranonosyl)-2-deoxy-D-galactopyranose

> <IUPAC_NAME>
5-acetamido-9-O-acetyl-3,5-dideoxy-D-glycero-alpha-D-galacto-non-2-ulopyranonosyl-(2->6)-2-acetamido-2-deoxy-D-galactopyranose

> <FORMULA>
C21H34N2O15

> <MASS>
554.49910

> <MONOISOTOPIC_MASS>
554.19592

> <CHARGE>
0

> <SMILES>
[H][C@]1(O[C@@](C[C@H](O)[C@H]1NC(C)=O)(OC[C@H]1OC(O)[C@H](NC(C)=O)[C@@H](O)[C@H]1O)C(O)=O)[C@H](O)[C@H](O)COC(C)=O

> <INCHI>
InChI=1S/C21H34N2O15/c1-7(24)22-13-10(27)4-21(20(33)34,38-18(13)15(29)11(28)5-35-9(3)26)36-6-12-16(30)17(31)14(19(32)37-12)23-8(2)25/h10-19,27-32H,4-6H2,1-3H3,(H,22,24)(H,23,25)(H,33,34)/t10-,11+,12+,13+,14+,15+,16-,17+,18+,19?,21+/m0/s1

> <INCHIKEY>
YXTQOPXTCNTBGM-LNOVCIHQSA-N

> <PUBMED_CITATION>
15380274

$$$$

Ketcher 02281715052D 1   1.00000     0.00000     0

 15 15  0     1  0            999 V2000
   12.5603   -5.0257    0.0000 C   0  0  0  0  0  0  0  0  0  0  0  0
   11.7685   -5.0257    0.0000 C   0  0  0  0  0  0  0  0  0  0  0  0
   12.9562   -4.3399    0.0000 O   0  0  0  0  0  0  0  0  0  0  0  0
   11.3726   -4.3399    0.0000 C   0  0  0  0  0  0  0  0  0  0  0  0
   12.5603   -3.6542    0.0000 C   0  0  0  0  0  0  0  0  0  0  0  0
   11.7685   -3.6542    0.0000 C   0  0  0  0  0  0  0  0  0  0  0  0
   13.6182   -5.0824    0.0000 O   0  0  0  0  0  0  0  0  0  0  0  0
    9.3133   -5.0501    0.0000 O   0  0  0  0  0  0  0  0  0  0  0  0
   10.5808   -4.3398    0.0000 O   0  0  0  0  0  0  0  0  0  0  0  0
   11.3726   -2.9685    0.0000 O   0  0  0  0  0  0  0  0  0  0  0  0
   12.9562   -2.9685    0.0000 C   0  0  0  0  0  0  0  0  0  0  0  0
   12.5603   -2.2828    0.0000 O   0  0  0  0  0  0  0  0  0  0  0  0
   15.0823   -5.0370    0.0000 H   0  0  0  0  0  0  0  0  0  0  0  0
   11.3046   -5.9624    0.0000 H   0  0  0  0  0  0  0  0  0  0  0  0
   13.1171   -5.9242    0.0000 H   0  0  0  0  0  0  0  0  0  0  0  0
  1  2  1  0     0  0
  1  3  1  0     0  0
  2  4  1  0     0  0
  3  5  1  0     0  0
  4  6  1  0     0  0
  5  6  1  0     0  0
  1  7  1  1     0  0
  2  8  1  1     0  0
  4  9  1  1     0  0
  6 10  1  6     0  0
  5 11  1  1     0  0
 12 11  1  0     0  0
  7 13  1  0     0  0
  2 14  1  6     0  0
  1 15  1  6     0  0
M  STY  1   1 SRU
M  SLB  1   1   1
M  SCN  1   1 HT 
M  SMT   1 n
M  SAL   1 13   1   2   3   4   5   6   7   9  10  11  12  14  15
M  SBL   1  2   8  13
M  SDI   1  4   10.5366   -5.7879   10.5452   -4.2879
M  SDI   1  4   14.3546   -4.3097   14.3460   -5.8097
M  END
> <ID>
CHEBI:59573

> <NAME>
(1->2)-beta-D-mannan

> <DEFINITION>
A mannan consisting of repeating mannosyl units joined via β-(1→2)-linkages.

> <STAR>
3

> <SECONDARY_ID>
CHEBI:61124

> <SYNONYM>
beta-1,2-Man; [2)-beta-D-Manp-(1->]n; (1->2)-beta-D-mannan

> <IUPAC_NAME>
(1->2)-beta-D-mannopyranan

> <FORMULA>
(C6H10O5)n.H2O

> <CHARGE>
0

> <PUBMED_CITATION>
7582029; 12117941; 12435690

$$$$

Marvin  06031017012D          

 24 25  0  0  1  0            999 V2000
   12.3524   -4.5562    0.0000 C   0  0  1  0  0  0  0  0  0  0  0  0
   12.3524   -5.3813    0.0000 C   0  0  1  0  0  0  0  0  0  0  0  0
   11.6379   -4.1437    0.0000 O   0  0  0  0  0  0  0  0  0  0  0  0
   11.6379   -5.7938    0.0000 C   0  0  1  0  0  0  0  0  0  0  0  0
   10.9235   -4.5562    0.0000 C   0  0  2  0  0  0  0  0  0  0  0  0
   10.9235   -5.3813    0.0000 C   0  0  2  0  0  0  0  0  0  0  0  0
   13.0668   -5.7938    0.0000 O   0  0  0  0  0  0  0  0  0  0  0  0
   11.6379   -6.6187    0.0000 O   0  0  0  0  0  0  0  0  0  0  0  0
   10.2091   -5.7938    0.0000 O   0  0  0  0  0  0  0  0  0  0  0  0
   10.2091   -4.1437    0.0000 C   0  0  0  0  0  0  0  0  0  0  0  0
    9.4946   -6.2063    0.0000 C   0  0  1  0  0  0  0  0  0  0  0  0
    9.4946   -7.0313    0.0000 C   0  0  1  0  0  0  0  0  0  0  0  0
    8.7801   -5.7938    0.0000 O   0  0  0  0  0  0  0  0  0  0  0  0
    8.7801   -7.4438    0.0000 C   0  0  2  0  0  0  0  0  0  0  0  0
    8.0656   -6.2063    0.0000 C   0  0  1  0  0  0  0  0  0  0  0  0
    8.0656   -7.0313    0.0000 C   0  0  1  0  0  0  0  0  0  0  0  0
   10.2091   -7.4438    0.0000 O   0  0  0  0  0  0  0  0  0  0  0  0
    8.7800   -8.2688    0.0000 O   0  0  0  0  0  0  0  0  0  0  0  0
    7.3511   -7.4438    0.0000 O   0  0  0  0  0  0  0  0  0  0  0  0
    7.3511   -5.7938    0.0000 C   0  0  0  0  0  0  0  0  0  0  0  0
    6.6367   -6.2063    0.0000 O   0  0  0  0  0  0  0  0  0  0  0  0
    5.9221   -5.7938    0.0000 C   0  0  0  0  0  0  0  0  0  0  0  0
    8.0655   -8.6813    0.0000 C   0  0  0  0  0  0  0  0  0  0  0  0
   13.0669   -4.1437    0.0000 O   0  0  0  0  0  0  0  0  0  0  0  0
  1  2  1  0  0  0  0
  1  3  1  0  0  0  0
  2  4  1  0  0  0  0
  3  5  1  0  0  0  0
  4  6  1  0  0  0  0
  5  6  1  0  0  0  0
  2  7  1  6  0  0  0
  4  8  1  6  0  0  0
  6  9  1  1  0  0  0
  5 10  1  6  0  0  0
 11 12  1  0  0  0  0
 11 13  1  0  0  0  0
 12 14  1  0  0  0  0
 13 15  1  0  0  0  0
 14 16  1  0  0  0  0
 15 16  1  0  0  0  0
 11  9  1  1  0  0  0
 12 17  1  6  0  0  0
 14 18  1  1  0  0  0
 16 19  1  6  0  0  0
 15 20  1  1  0  0  0
 21 20  1  0  0  0  0
 21 22  1  0  0  0  0
 18 23  1  0  0  0  0
  1 24  1  1  0  0  0
M  END
> <ID>
CHEBI:59575

> <NAME>
3,6-di-O-methyl-beta-D-glucopyranosyl-(1->4)-alpha-L-rhamnopyranose

> <DEFINITION>
A disaccharide derivative consisting of α-L-rhamnose having a 3,6-di-O-methyl-β-D-glucosyl residue attached at the 4-position; corresponds to the carbohydrate portion of synthetic antigens containing the Mycobacterium leprae-specific epitope.

> <STAR>
3

> <SYNONYM>
6-deoxy-4-O-(3,6-di-O-methyl-beta-D-glucopyranosyl)-alpha-L-mannopyranose; 4-O-(3,6-di-O-methyl-beta-D-glucopyranosyl)-alpha-L-rhamnopyranose; 3,6-di-O-methyl-beta-D-glucosyl-(1->4)-alpha-L-rhamnose; 3,6-di-O-methyl-beta-D-glucopyranosyl-(1->4)-6-deoxy-alpha-L-mannopyranose; 3,6-di-O-methyl-beta-D-Glcp-(1->4)-alpha-L-Rhap; 3,6-di-O-methyl-beta-D-Glc-(1->4)-alpha-L-Rha

> <IUPAC_NAME>
3,6-di-O-methyl-beta-D-glucopyranosyl-(1->4)-alpha-L-rhamnopyranose

> <FORMULA>
C14H26O10

> <MASS>
354.35020

> <MONOISOTOPIC_MASS>
354.15260

> <CHARGE>
0

> <SMILES>
COC[C@H]1O[C@@H](O[C@H]2[C@H](C)O[C@@H](O)[C@H](O)[C@@H]2O)[C@H](O)[C@@H](OC)[C@@H]1O

> <INCHI>
InChI=1S/C14H26O10/c1-5-11(8(16)9(17)13(19)22-5)24-14-10(18)12(21-3)7(15)6(23-14)4-20-2/h5-19H,4H2,1-3H3/t5-,6+,7+,8-,9+,10+,11-,12-,13+,14-/m0/s1

> <INCHIKEY>
YCBHCOIGSRUNDB-XGLXEIPHSA-N

> <PUBMED_CITATION>
3080916

$$$$

Marvin  06041010172D          

 23 24  0  0  1  0            999 V2000
   14.4773   -3.7622    0.0000 C   0  0  0  0  0  0  0  0  0  0  0  0
   14.4773   -4.5872    0.0000 C   0  0  1  0  0  0  0  0  0  0  0  0
   13.7628   -3.3497    0.0000 O   0  0  0  0  0  0  0  0  0  0  0  0
   13.7628   -4.9997    0.0000 C   0  0  2  0  0  0  0  0  0  0  0  0
   13.0483   -3.7622    0.0000 C   0  0  1  0  0  0  0  0  0  0  0  0
   13.0483   -4.5872    0.0000 C   0  0  2  0  0  0  0  0  0  0  0  0
   15.1918   -3.3497    0.0000 O   0  0  0  0  0  0  0  0  0  0  0  0
   15.1918   -4.9997    0.0000 O   0  0  0  0  0  0  0  0  0  0  0  0
   13.7628   -5.8247    0.0000 O   0  0  0  0  0  0  0  0  0  0  0  0
   12.3339   -4.9997    0.0000 O   0  0  0  0  0  0  0  0  0  0  0  0
   12.3339   -3.3497    0.0000 C   0  0  0  0  0  0  0  0  0  0  0  0
   11.6194   -3.7622    0.0000 O   0  0  0  0  0  0  0  0  0  0  0  0
   10.9049   -3.3497    0.0000 C   0  0  2  0  0  0  0  0  0  0  0  0
   10.1905   -3.7622    0.0000 C   0  0  1  0  0  0  0  0  0  0  0  0
   10.9049   -2.5247    0.0000 O   0  0  0  0  0  0  0  0  0  0  0  0
    9.4760   -3.3496    0.0000 C   0  0  2  0  0  0  0  0  0  0  0  0
   10.1905   -2.1121    0.0000 C   0  0  1  0  0  0  0  0  0  0  0  0
    9.4760   -2.5246    0.0000 C   0  0  2  0  0  0  0  0  0  0  0  0
   10.1904   -4.5872    0.0000 O   0  0  0  0  0  0  0  0  0  0  0  0
    8.7615   -3.7621    0.0000 O   0  0  0  0  0  0  0  0  0  0  0  0
    8.7616   -2.1121    0.0000 O   0  0  0  0  0  0  0  0  0  0  0  0
   10.1905   -1.2871    0.0000 C   0  0  0  0  0  0  0  0  0  0  0  0
    9.4761   -0.8746    0.0000 O   0  0  0  0  0  0  0  0  0  0  0  0
  1  2  1  0  0  0  0
  1  3  1  0  0  0  0
  2  4  1  0  0  0  0
  3  5  1  0  0  0  0
  4  6  1  0  0  0  0
  5  6  1  0  0  0  0
  1  7  1  0  0  0  0
  2  8  1  6  0  0  0
  4  9  1  1  0  0  0
  6 10  1  1  0  0  0
  5 11  1  1  0  0  0
 12 11  1  0  0  0  0
 13 14  1  0  0  0  0
 13 15  1  0  0  0  0
 14 16  1  0  0  0  0
 15 17  1  0  0  0  0
 16 18  1  0  0  0  0
 17 18  1  0  0  0  0
 13 12  1  6  0  0  0
 14 19  1  6  0  0  0
 16 20  1  1  0  0  0
 18 21  1  1  0  0  0
 17 22  1  1  0  0  0
 23 22  1  0  0  0  0
M  END
> <ID>
CHEBI:59578

> <NAME>
alpha-D-Galp-(1->6)-D-Galp

> <DEFINITION>
A glycosylgalactose consisting of D-galactose having an α-D-galactosyl residue attached at the 6-position.

> <STAR>
3

> <SYNONYM>
Galalpha1-6Gal; alpha-Gal-(1-6)-Gal; alpha-D-galactosyl-(1->6)-D-galactose; alpha-D-Gal-(1->6)-D-Gal; 6-O-alpha-D-galactopyranosyl-D-galactopyranose

> <IUPAC_NAME>
alpha-D-galactopyranosyl-(1->6)-D-galactopyranose

> <FORMULA>
C12H22O11

> <MASS>
342.29650

> <MONOISOTOPIC_MASS>
342.11621

> <CHARGE>
0

> <SMILES>
OC[C@H]1O[C@H](OC[C@H]2OC(O)[C@H](O)[C@@H](O)[C@H]2O)[C@H](O)[C@@H](O)[C@H]1O

> <INCHI>
InChI=1S/C12H22O11/c13-1-3-5(14)8(17)10(19)12(23-3)21-2-4-6(15)7(16)9(18)11(20)22-4/h3-20H,1-2H2/t3-,4-,5+,6+,7+,8+,9-,10-,11?,12+/m1/s1

> <INCHIKEY>
DLRVVLDZNNYCBX-BQYJSGCXSA-N

> <BEILSTEIN_REGISTRY_NUMBER>
1292779

> <REAXYS_REGISTRY_NUMBER>
1292779

> <PUBMED_CITATION>
1719024

$$$$

Marvin  03141210002D          

 23 24  0  0  1  0            999 V2000
    9.7231   -4.8577    0.0000 C   0  0  0  0  0  0  0  0  0  0  0  0
    9.7231   -5.6826    0.0000 C   0  0  2  0  0  0  0  0  0  0  0  0
    9.0086   -4.4452    0.0000 O   0  0  0  0  0  0  0  0  0  0  0  0
    9.0086   -6.0950    0.0000 C   0  0  2  0  0  0  0  0  0  0  0  0
    8.2942   -4.8577    0.0000 C   0  0  1  0  0  0  0  0  0  0  0  0
    8.2942   -5.6826    0.0000 C   0  0  1  0  0  0  0  0  0  0  0  0
   10.4375   -4.4452    0.0000 O   0  0  0  0  0  0  0  0  0  0  0  0
    9.0086   -6.9200    0.0000 O   0  0  0  0  0  0  0  0  0  0  0  0
    7.5797   -6.0950    0.0000 O   0  0  0  0  0  0  0  0  0  0  0  0
    7.5797   -4.4452    0.0000 C   0  0  0  0  0  0  0  0  0  0  0  0
    6.8653   -4.8577    0.0000 O   0  0  0  0  0  0  0  0  0  0  0  0
   10.4376   -6.0951    0.0000 O   0  0  0  0  0  0  0  0  0  0  0  0
   10.4376   -6.9201    0.0000 C   0  0  2  0  0  0  0  0  0  0  0  0
   11.1521   -7.3326    0.0000 C   0  0  2  0  0  0  0  0  0  0  0  0
    9.7231   -7.3326    0.0000 O   0  0  0  0  0  0  0  0  0  0  0  0
   11.1521   -8.1576    0.0000 C   0  0  2  0  0  0  0  0  0  0  0  0
    9.7231   -8.1576    0.0000 C   0  0  1  0  0  0  0  0  0  0  0  0
   10.4376   -8.5701    0.0000 C   0  0  1  0  0  0  0  0  0  0  0  0
   11.8665   -6.9201    0.0000 O   0  0  0  0  0  0  0  0  0  0  0  0
   11.8664   -8.5700    0.0000 O   0  0  0  0  0  0  0  0  0  0  0  0
   10.4375   -9.3951    0.0000 O   0  0  0  0  0  0  0  0  0  0  0  0
    9.0086   -8.5701    0.0000 C   0  0  0  0  0  0  0  0  0  0  0  0
    9.0086   -9.3950    0.0000 O   0  0  0  0  0  0  0  0  0  0  0  0
  1  2  1  0  0  0  0
  1  3  1  0  0  0  0
  2  4  1  0  0  0  0
  3  5  1  0  0  0  0
  4  6  1  0  0  0  0
  5  6  1  0  0  0  0
  1  7  1  0  0  0  0
  4  8  1  1  0  0  0
  6  9  1  6  0  0  0
  5 10  1  1  0  0  0
 11 10  1  0  0  0  0
  2 12  1  1  0  0  0
 13 14  1  0  0  0  0
 13 15  1  0  0  0  0
 14 16  1  0  0  0  0
 15 17  1  0  0  0  0
 16 18  1  0  0  0  0
 17 18  1  0  0  0  0
 14 19  1  1  0  0  0
 16 20  1  1  0  0  0
 18 21  1  6  0  0  0
 17 22  1  1  0  0  0
 23 22  1  0  0  0  0
 13 12  1  6  0  0  0
M  END
> <ID>
CHEBI:59584

> <NAME>
alpha-D-Manp-(1->2)-D-Manp

> <DEFINITION>
A glycosylmannose consisting of D-mannose having an α-D-mannosyl residue attached at the 2-position.

> <STAR>
3

> <SYNONYM>
alpha-Man-(1->2)-Man; alpha-D-mannosyl-(1->2)-D-mannose; alpha-D-Man-(1->2)-D-Man; 2-O-alpha-D-mannopyranosyl-D-mannopyranose; (Man)2

> <IUPAC_NAME>
alpha-D-mannopyranosyl-(1->2)-D-mannopyranose

> <FORMULA>
C12H22O11

> <MASS>
342.29650

> <MONOISOTOPIC_MASS>
342.11621

> <CHARGE>
0

> <SMILES>
OC[C@H]1OC(O)[C@@H](O[C@H]2O[C@H](CO)[C@@H](O)[C@H](O)[C@@H]2O)[C@@H](O)[C@@H]1O

> <INCHI>
InChI=1S/C12H22O11/c13-1-3-6(16)8(18)10(11(20)21-3)23-12-9(19)7(17)5(15)4(2-14)22-12/h3-20H,1-2H2/t3-,4-,5-,6-,7+,8+,9+,10+,11?,12-/m1/s1

> <INCHIKEY>
HIWPGCMGAMJNRG-VXSGSMIHSA-N

> <BEILSTEIN_REGISTRY_NUMBER>
1625922

> <REAXYS_REGISTRY_NUMBER>
1625922

> <KEGG_GLYCAN_ACCESSION>
G00324

> <PUBMED_CITATION>
1368530; 7693464; 8898075

$$$$

Marvin  06111013302D          

 27 28  0  0  1  0            999 V2000
   16.8958   -4.2840    0.0000 C   0  0  2  0  0  0  0  0  0  0  0  0
   16.8958   -5.1090    0.0000 C   0  0  2  0  0  0  0  0  0  0  0  0
   16.1813   -3.8715    0.0000 O   0  0  0  0  0  0  0  0  0  0  0  0
   16.1813   -5.5215    0.0000 C   0  0  2  0  0  0  0  0  0  0  0  0
   15.4668   -4.2840    0.0000 C   0  0  1  0  0  0  0  0  0  0  0  0
   15.4668   -5.1090    0.0000 C   0  0  1  0  0  0  0  0  0  0  0  0
   17.6103   -3.8715    0.0000 O   0  0  0  0  0  0  0  0  0  0  0  0
   17.6103   -5.5215    0.0000 O   0  0  0  0  0  0  0  0  0  0  0  0
   16.1813   -6.3465    0.0000 O   0  0  0  0  0  0  0  0  0  0  0  0
   14.7524   -5.5215    0.0000 O   0  0  0  0  0  0  0  0  0  0  0  0
   14.7524   -3.8715    0.0000 C   0  0  0  0  0  0  0  0  0  0  0  0
   14.0379   -4.2840    0.0000 O   0  0  0  0  0  0  0  0  0  0  0  0
   14.0379   -5.9340    0.0000 C   0  0  1  0  0  0  0  0  0  0  0  0
   14.0379   -6.7590    0.0000 C   0  0  1  0  0  0  0  0  0  0  0  0
   13.3234   -5.5215    0.0000 O   0  0  0  0  0  0  0  0  0  0  0  0
   13.3234   -7.1715    0.0000 C   0  0  2  0  0  0  0  0  0  0  0  0
   12.6090   -5.9340    0.0000 C   0  0  1  0  0  0  0  0  0  0  0  0
   12.6090   -6.7590    0.0000 C   0  0  2  0  0  0  0  0  0  0  0  0
   14.7524   -7.1715    0.0000 O   0  0  0  0  0  0  0  0  0  0  0  0
   13.3234   -7.9965    0.0000 O   0  0  0  0  0  0  0  0  0  0  0  0
   11.8945   -7.1715    0.0000 O   0  0  0  0  0  0  0  0  0  0  0  0
   11.8945   -5.5215    0.0000 C   0  0  0  0  0  0  0  0  0  0  0  0
   11.1800   -5.9340    0.0000 O   0  0  0  0  0  0  0  0  0  0  0  0
   10.4655   -5.5215    0.0000 P   0  0  0  0  0  0  0  0  0  0  0  0
    9.7510   -5.9341    0.0000 O   0  0  0  0  0  0  0  0  0  0  0  0
   10.4655   -4.6965    0.0000 O   0  0  0  0  0  0  0  0  0  0  0  0
   10.2520   -6.3184    0.0000 O   0  0  0  0  0  0  0  0  0  0  0  0
  1  2  1  0  0  0  0
  1  3  1  0  0  0  0
  2  4  1  0  0  0  0
  3  5  1  0  0  0  0
  4  6  1  0  0  0  0
  5  6  1  0  0  0  0
  1  7  1  6  0  0  0
  2  8  1  1  0  0  0
  4  9  1  1  0  0  0
  6 10  1  6  0  0  0
  5 11  1  1  0  0  0
 12 11  1  0  0  0  0
 13 14  1  0  0  0  0
 13 15  1  0  0  0  0
 14 16  1  0  0  0  0
 15 17  1  0  0  0  0
 16 18  1  0  0  0  0
 17 18  1  0  0  0  0
 13 10  1  1  0  0  0
 14 19  1  6  0  0  0
 16 20  1  1  0  0  0
 18 21  1  1  0  0  0
 17 22  1  1  0  0  0
 23 22  1  0  0  0  0
 23 24  1  0  0  0  0
 24 25  1  0  0  0  0
 24 26  2  0  0  0  0
 24 27  1  0  0  0  0
M  END
> <ID>
CHEBI:59614

> <NAME>
beta-D-Galp6P-(1->4)-alpha-D-Manp

> <DEFINITION>
A disaccharide phosphate corresponding to part of the oligosaccharide repeating unit of Leishmania major promastigote lipophosphoglycan.

> <STAR>
3

> <SYNONYM>
PO4-6-beta-D-Galp-(1->4)-alpha-D-Manp; Gal6Pbeta1-4Manalpha; beta-D-Gal6P-(1->4)-alpha-D-Man; 6P-beta-D-Galp-(1->4)-alpha-D-Manp; 6P-beta-D-Gal-(1->4)-alpha-D-Man; 6-O-phosphono-beta-D-galactoyl-(1->4)-alpha-D-mannose; 4-O-(6-O-phosphono-beta-D-galactopyranosyl)-alpha-D-mannopyranose

> <IUPAC_NAME>
6-O-phosphono-beta-D-galactopyranosyl-(1->4)-alpha-D-mannopyranose

> <FORMULA>
C12H23O14P

> <MASS>
422.27640

> <MONOISOTOPIC_MASS>
422.08254

> <CHARGE>
0

> <SMILES>
OC[C@H]1O[C@H](O)[C@@H](O)[C@@H](O)[C@@H]1O[C@@H]1O[C@H](COP(O)(O)=O)[C@H](O)[C@H](O)[C@H]1O

> <INCHI>
InChI=1S/C12H23O14P/c13-1-3-10(7(16)8(17)11(19)24-3)26-12-9(18)6(15)5(14)4(25-12)2-23-27(20,21)22/h3-19H,1-2H2,(H2,20,21,22)/t3-,4-,5+,6+,7-,8+,9-,10-,11+,12+/m1/s1

> <INCHIKEY>
ITPHOIFCAFNCLL-LVIVMJSQSA-N

> <PUBMED_CITATION>
7808469

$$$$

Marvin  06111015022D          

 47 50  0  0  1  0            999 V2000
   18.1881   -0.4374    0.0000 C   0  0  2  0  0  0  0  0  0  0  0  0
   18.1881   -1.2624    0.0000 C   0  0  2  0  0  0  0  0  0  0  0  0
   17.4737   -0.0249    0.0000 O   0  0  0  0  0  0  0  0  0  0  0  0
   17.4737   -1.6749    0.0000 C   0  0  2  0  0  0  0  0  0  0  0  0
   16.7592   -0.4374    0.0000 C   0  0  1  0  0  0  0  0  0  0  0  0
   16.7592   -1.2624    0.0000 C   0  0  1  0  0  0  0  0  0  0  0  0
   18.9026   -0.0249    0.0000 O   0  0  0  0  0  0  0  0  0  0  0  0
   18.9026   -1.6749    0.0000 O   0  0  0  0  0  0  0  0  0  0  0  0
   17.4736   -2.4999    0.0000 O   0  0  0  0  0  0  0  0  0  0  0  0
   16.0447   -1.6749    0.0000 O   0  0  0  0  0  0  0  0  0  0  0  0
   16.0447   -0.0249    0.0000 C   0  0  0  0  0  0  0  0  0  0  0  0
   15.3302   -0.4374    0.0000 O   0  0  0  0  0  0  0  0  0  0  0  0
   15.3303   -2.0874    0.0000 C   0  0  1  0  0  0  0  0  0  0  0  0
   15.3303   -2.9124    0.0000 C   0  0  1  0  0  0  0  0  0  0  0  0
   14.6157   -1.6749    0.0000 O   0  0  0  0  0  0  0  0  0  0  0  0
   14.6157   -3.3249    0.0000 C   0  0  2  0  0  0  0  0  0  0  0  0
   13.9013   -2.0874    0.0000 C   0  0  1  0  0  0  0  0  0  0  0  0
   13.9013   -2.9124    0.0000 C   0  0  2  0  0  0  0  0  0  0  0  0
   16.0447   -3.3249    0.0000 O   0  0  0  0  0  0  0  0  0  0  0  0
   14.6157   -4.1499    0.0000 O   0  0  0  0  0  0  0  0  0  0  0  0
   13.1868   -3.3249    0.0000 O   0  0  0  0  0  0  0  0  0  0  0  0
   13.1868   -1.6749    0.0000 C   0  0  0  0  0  0  0  0  0  0  0  0
   12.4723   -2.0874    0.0000 O   0  0  0  0  0  0  0  0  0  0  0  0
   13.9012   -4.5624    0.0000 C   0  0  1  0  0  0  0  0  0  0  0  0
   13.9012   -5.3874    0.0000 C   0  0  1  0  0  0  0  0  0  0  0  0
   13.1867   -4.1499    0.0000 O   0  0  0  0  0  0  0  0  0  0  0  0
   13.1867   -5.7999    0.0000 C   0  0  2  0  0  0  0  0  0  0  0  0
   12.4723   -4.5624    0.0000 C   0  0  1  0  0  0  0  0  0  0  0  0
   12.4723   -5.3874    0.0000 C   0  0  2  0  0  0  0  0  0  0  0  0
   14.7052   -6.5454    0.0000 O   0  0  0  0  0  0  0  0  0  0  0  0
   13.1867   -6.6249    0.0000 O   0  0  0  0  0  0  0  0  0  0  0  0
   11.7578   -5.7999    0.0000 O   0  0  0  0  0  0  0  0  0  0  0  0
   11.7578   -4.1499    0.0000 C   0  0  0  0  0  0  0  0  0  0  0  0
   11.0433   -4.5624    0.0000 O   0  0  0  0  0  0  0  0  0  0  0  0
   13.2750   -7.0626    0.0000 O   0  0  0  0  0  0  0  0  0  0  0  0
   12.6076   -7.5475    0.0000 C   0  0  2  0  0  0  0  0  0  0  0  0
   13.9424   -7.5475    0.0000 C   0  0  2  0  0  0  0  0  0  0  0  0
   13.6876   -8.3321    0.0000 C   0  0  2  0  0  0  0  0  0  0  0  0
   14.1724   -8.9997    0.0000 O   0  0  0  0  0  0  0  0  0  0  0  0
   12.8625   -8.3321    0.0000 C   0  0  1  0  0  0  0  0  0  0  0  0
   12.3776   -8.9997    0.0000 O   0  0  0  0  0  0  0  0  0  0  0  0
   11.8229   -7.2926    0.0000 C   0  0  0  0  0  0  0  0  0  0  0  0
   11.2097   -7.8446    0.0000 O   0  0  0  0  0  0  0  0  0  0  0  0
   11.7578   -1.6749    0.0000 P   0  0  0  0  0  0  0  0  0  0  0  0
   11.0433   -2.0874    0.0000 O   0  0  0  0  0  0  0  0  0  0  0  0
   11.7578   -0.8499    0.0000 O   0  0  0  0  0  0  0  0  0  0  0  0
   11.5443   -2.4718    0.0000 O   0  0  0  0  0  0  0  0  0  0  0  0
  1  2  1  0  0  0  0
  1  3  1  0  0  0  0
  2  4  1  0  0  0  0
  3  5  1  0  0  0  0
  4  6  1  0  0  0  0
  5  6  1  0  0  0  0
  1  7  1  6  0  0  0
  2  8  1  1  0  0  0
  4  9  1  1  0  0  0
  6 10  1  6  0  0  0
  5 11  1  1  0  0  0
 12 11  1  0  0  0  0
 13 14  1  0  0  0  0
 13 15  1  0  0  0  0
 14 16  1  0  0  0  0
 15 17  1  0  0  0  0
 16 18  1  0  0  0  0
 17 18  1  0  0  0  0
 13 10  1  1  0  0  0
 14 19  1  6  0  0  0
 16 20  1  1  0  0  0
 18 21  1  1  0  0  0
 17 22  1  1  0  0  0
 23 22  1  0  0  0  0
 24 25  1  0  0  0  0
 24 26  1  0  0  0  0
 25 27  1  0  0  0  0
 26 28  1  0  0  0  0
 27 29  1  0  0  0  0
 28 29  1  0  0  0  0
 24 20  1  1  0  0  0
 25 30  1  6  0  0  0
 27 31  1  1  0  0  0
 29 32  1  1  0  0  0
 28 33  1  1  0  0  0
 34 33  1  0  0  0  0
 35 36  1  0  0  0  0
 35 37  1  0  0  0  0
 36 40  1  0  0  0  0
 36 42  1  6  0  0  0
 38 37  1  0  0  0  0
 37 30  1  1  0  0  0
 40 38  1  0  0  0  0
 38 39  1  6  0  0  0
 40 41  1  1  0  0  0
 42 43  1  0  0  0  0
 23 44  1  0  0  0  0
 44 45  1  0  0  0  0
 44 46  2  0  0  0  0
 44 47  1  0  0  0  0
M  END
> <ID>
CHEBI:59617

> <NAME>
alpha-L-Araf-(1->2)-beta-D-Galp-(1->3)-beta-D-Galp6P-(1->4)-alpha-D-Manp

> <DEFINITION>
A tetrasaccharide derivative that is the tetrasaccharide phosphate corresponding to the oligosaccharide repeating unit of Leishmania major promastigote lipophosphoglycan.

> <STAR>
3

> <SYNONYM>
PO4-6-[alpha-L-Araf-(1->2)-beta-D-Galp-(1->3)]-beta-D-Galp-(1->4)-alpha-D-Manp; L-Araalpha1-2Galbeta1-3Gal6Pbeta1-4Manalpha; alpha-L-arabinosyl-(1->2)-beta-D-galactosyl-(1->3)-6-O-phosphono-beta-D-galactosyl-(1->4)-alpha-D-mannose; alpha-L-Ara-(1->2)-beta-D-Gal-(1->3)-beta-D-Gal6P-(1->4)-alpha-D-Man; 6-P-[alpha-L-Araf-(1->2)-beta-D-Galp-(1->3)]-beta-D-Galp-(1->4)-alpha-D-Manp; 6-P-[alpha-L-Ara-(1->2)-beta-D-Gal-(1->3)]-beta-D-Gal-(1->4)-alpha-D-Man

> <IUPAC_NAME>
alpha-L-arabinofuranosyl-(1->2)-beta-D-galactopyranosyl-(1->3)-6-O-phosohono-beta-D-galactopyranosyl-(1->4)-alpha-D-mannopyranose

> <FORMULA>
C23H41O23P

> <MASS>
716.53160

> <MONOISOTOPIC_MASS>
716.17762

> <CHARGE>
0

> <SMILES>
OC[C@@H]1O[C@@H](O[C@@H]2[C@@H](O)[C@@H](O)[C@@H](CO)O[C@H]2O[C@H]2[C@@H](O)[C@@H](COP(O)(O)=O)O[C@@H](O[C@H]3[C@H](O)[C@H](O)[C@@H](O)O[C@@H]3CO)[C@@H]2O)[C@H](O)[C@H]1O

> <INCHI>
InChI=1S/C23H41O23P/c24-1-5-9(27)12(30)19(46-21-15(33)10(28)6(2-25)41-21)23(42-5)45-18-11(29)8(4-39-47(36,37)38)43-22(16(18)34)44-17-7(3-26)40-20(35)14(32)13(17)31/h5-35H,1-4H2,(H2,36,37,38)/t5-,6+,7-,8-,9+,10+,11+,12+,13-,14+,15-,16-,17-,18+,19-,20+,21+,22+,23+/m1/s1

> <INCHIKEY>
UBPIVIAUCLQNKS-CLAPQHCWSA-N

> <PUBMED_CITATION>
7808469

$$$$

Marvin  06111015592D          

 15 14  0  0  1  0            999 V2000
    9.7504  -21.4129    0.0000 C   0  0  0  0  0  0  0  0  0  0  0  0
    9.7504  -20.5879    0.0000 O   0  0  0  0  0  0  0  0  0  0  0  0
    9.0359  -21.8254    0.0000 C   0  0  1  0  0  0  0  0  0  0  0  0
    9.0359  -22.6504    0.0000 C   0  0  0  0  0  0  0  0  0  0  0  0
    8.3214  -21.4129    0.0000 N   0  0  0  0  0  0  0  0  0  0  0  0
   10.4649  -21.8254    0.0000 O   0  0  0  0  0  0  0  0  0  0  0  0
    7.6069  -21.8254    0.0000 C   0  0  0  0  0  0  0  0  0  0  0  0
    7.6069  -22.6505    0.0000 O   0  0  0  0  0  0  0  0  0  0  0  0
    6.8924  -21.4129    0.0000 C   0  0  1  0  0  0  0  0  0  0  0  0
    6.8924  -20.5879    0.0000 N   0  0  0  0  0  0  0  0  0  0  0  0
    3.3200  -21.8254    0.0000 N   0  0  0  0  0  0  0  0  0  0  0  0
    4.0345  -21.4129    0.0000 C   0  0  0  0  0  0  0  0  0  0  0  0
    6.1779  -21.8254    0.0000 C   0  0  0  0  0  0  0  0  0  0  0  0
    4.7489  -21.8254    0.0000 C   0  0  0  0  0  0  0  0  0  0  0  0
    5.4635  -21.4129    0.0000 C   0  0  0  0  0  0  0  0  0  0  0  0
  1  2  2  0  0  0  0
  1  3  1  0  0  0  0
  3  4  1  1  0  0  0
  3  5  1  0  0  0  0
  6  1  1  0  0  0  0
  5  7  1  0  0  0  0
  7  8  2  0  0  0  0
  7  9  1  0  0  0  0
  9 10  1  6  0  0  0
  9 13  1  0  0  0  0
 11 12  1  0  0  0  0
 12 14  1  0  0  0  0
 13 15  1  0  0  0  0
 14 15  1  0  0  0  0
M  END
> <ID>
CHEBI:59621

> <NAME>
L-lysyl-D-alanine

> <DEFINITION>
A dipeptide formed from L-lysyl and D-alanyl residues.

> <STAR>
3

> <SYNONYM>
Lys-Ala; (2R)-2-{[(2S)-2,6-diaminohexanoyl]amino}propanoic acid

> <IUPAC_NAME>
L-lysyl-D-alanine

> <FORMULA>
C9H19N3O3

> <MASS>
217.26550

> <MONOISOTOPIC_MASS>
217.14264

> <CHARGE>
0

> <SMILES>
C[C@@H](NC(=O)[C@@H](N)CCCCN)C(O)=O

> <INCHI>
InChI=1S/C9H19N3O3/c1-6(9(14)15)12-8(13)7(11)4-2-3-5-10/h6-7H,2-5,10-11H2,1H3,(H,12,13)(H,14,15)/t6-,7+/m1/s1

> <INCHIKEY>
QOOWRKBDDXQRHC-RQJHMYQMSA-N

> <PUBMED_CITATION>
2473994; 27070556

$$$$

Marvin  06111016182D          

 20 19  0  0  1  0            999 V2000
    9.7504  -21.4129    0.0000 C   0  0  0  0  0  0  0  0  0  0  0  0
    9.7504  -20.5879    0.0000 O   0  0  0  0  0  0  0  0  0  0  0  0
    9.0359  -21.8254    0.0000 C   0  0  1  0  0  0  0  0  0  0  0  0
    9.0359  -22.6504    0.0000 C   0  0  0  0  0  0  0  0  0  0  0  0
    8.3214  -21.4129    0.0000 N   0  0  0  0  0  0  0  0  0  0  0  0
   10.4649  -21.8254    0.0000 N   0  0  0  0  0  0  0  0  0  0  0  0
    7.6069  -21.8254    0.0000 C   0  0  0  0  0  0  0  0  0  0  0  0
    7.6069  -22.6505    0.0000 O   0  0  0  0  0  0  0  0  0  0  0  0
    6.8924  -21.4129    0.0000 C   0  0  1  0  0  0  0  0  0  0  0  0
    6.8924  -20.5879    0.0000 N   0  0  0  0  0  0  0  0  0  0  0  0
    3.3200  -21.8254    0.0000 N   0  0  0  0  0  0  0  0  0  0  0  0
    4.0345  -21.4129    0.0000 C   0  0  0  0  0  0  0  0  0  0  0  0
    6.1779  -21.8254    0.0000 C   0  0  0  0  0  0  0  0  0  0  0  0
    4.7489  -21.8254    0.0000 C   0  0  0  0  0  0  0  0  0  0  0  0
    5.4635  -21.4129    0.0000 C   0  0  0  0  0  0  0  0  0  0  0  0
   11.8939  -21.8254    0.0000 C   0  0  0  0  0  0  0  0  0  0  0  0
   11.8939  -22.6504    0.0000 O   0  0  0  0  0  0  0  0  0  0  0  0
   11.1794  -21.4129    0.0000 C   0  0  1  0  0  0  0  0  0  0  0  0
   11.1794  -20.5879    0.0000 C   0  0  0  0  0  0  0  0  0  0  0  0
   12.6083  -21.4129    0.0000 O   0  0  0  0  0  0  0  0  0  0  0  0
  1  2  2  0  0  0  0
  1  3  1  0  0  0  0
  3  4  1  1  0  0  0
  3  5  1  0  0  0  0
  6  1  1  0  0  0  0
  5  7  1  0  0  0  0
  7  8  2  0  0  0  0
  7  9  1  0  0  0  0
  9 10  1  6  0  0  0
  9 13  1  0  0  0  0
 11 12  1  0  0  0  0
 12 14  1  0  0  0  0
 13 15  1  0  0  0  0
 14 15  1  0  0  0  0
 16 17  2  0  0  0  0
 16 18  1  0  0  0  0
 18 19  1  6  0  0  0
 18  6  1  0  0  0  0
 20 16  1  0  0  0  0
M  END
> <ID>
CHEBI:59622

> <NAME>
L-lysyl-D-alanyl-D-alanine

> <DEFINITION>
A linear tripeptide comprised of one L-lysine residue and two D-alanyl residues.

> <STAR>
3

> <SYNONYM>
Lysyl-alanyl-alanine; Lys-D-Ala-D-Ala; (2R)-2-{[(2R)-2-{[(2S)-2,6-diaminohexanoyl]amino}propanoyl]amino}propanoic acid

> <IUPAC_NAME>
L-lysyl-D-alanyl-D-alanine

> <FORMULA>
C12H24N4O4

> <MASS>
288.34340

> <MONOISOTOPIC_MASS>
288.17976

> <CHARGE>
0

> <SMILES>
C[C@@H](NC(=O)[C@@H](C)NC(=O)[C@@H](N)CCCCN)C(O)=O

> <INCHI>
InChI=1S/C12H24N4O4/c1-7(10(17)16-8(2)12(19)20)15-11(18)9(14)5-3-4-6-13/h7-9H,3-6,13-14H2,1-2H3,(H,15,18)(H,16,17)(H,19,20)/t7-,8-,9+/m1/s1

> <INCHIKEY>
FZIJIFCXUCZHOL-HLTSFMKQSA-N

> <BEILSTEIN_REGISTRY_NUMBER>
2288704

> <CAS_REGISTRY_NUMBER>
33755-56-5

> <REAXYS_REGISTRY_NUMBER>
2288704

> <CHEMIDPLUS>
33755-56-5

> <PUBMED_CITATION>
2473994; 4331859

$$$$

Ketcher 04211710252D 1   1.00000     0.00000     0

 21 22  0     1  0            999 V2000
   12.8664   -7.5064    0.0000 C   0  0  0  0  0  0  0  0  0  0  0  0
   12.8664   -8.5149    0.0000 C   0  0  0  0  0  0  0  0  0  0  0  0
   11.9926   -7.0021    0.0000 O   0  0  0  0  0  0  0  0  0  0  0  0
   11.9928   -9.0195    0.0000 C   0  0  0  0  0  0  0  0  0  0  0  0
   11.1194   -7.5064    0.0000 C   0  0  0  0  0  0  0  0  0  0  0  0
   11.1194   -8.5151    0.0000 C   0  0  0  0  0  0  0  0  0  0  0  0
   13.7398   -7.0017    0.0000 O   0  0  0  0  0  0  0  0  0  0  0  0
   13.7399   -9.0195    0.0000 O   0  0  0  0  0  0  0  0  0  0  0  0
   11.9928  -10.0281    0.0000 O   0  0  0  0  0  0  0  0  0  0  0  0
   10.2457   -9.0195    0.0000 O   0  0  0  0  0  0  0  0  0  0  0  0
   10.4764   -7.0021    0.0000 C   0  0  0  0  0  0  0  0  0  0  0  0
   14.6134   -5.4886    0.0000 C   0  0  0  0  0  0  0  0  0  0  0  0
   13.7398   -5.9931    0.0000 C   0  0  0  0  0  0  0  0  0  0  0  0
   14.6133   -4.4800    0.0000 O   0  0  0  0  0  0  0  0  0  0  0  0
   12.8663   -5.4888    0.0000 C   0  0  0  0  0  0  0  0  0  0  0  0
   13.7398   -3.9756    0.0000 C   0  0  0  0  0  0  0  0  0  0  0  0
   12.8661   -4.4801    0.0000 C   0  0  0  0  0  0  0  0  0  0  0  0
   15.4868   -5.9930    0.0000 O   0  0  0  0  0  0  0  0  0  0  0  0
   11.9926   -5.9931    0.0000 O   0  0  0  0  0  0  0  0  0  0  0  0
   11.9924   -3.9757    0.0000 O   0  0  0  0  0  0  0  0  0  0  0  0
   13.7395   -2.9669    0.0000 C   0  0  0  0  0  0  0  0  0  0  0  0
  1  2  1  0     0  0
  1  3  1  0     0  0
  2  4  1  0     0  0
  3  5  1  0     0  0
  4  6  1  0     0  0
  5  6  1  0     0  0
  1  7  1  1     0  0
  2  8  1  6     0  0
  4  9  1  6     0  0
  6 10  1  1     0  0
  5 11  1  6     0  0
 12 13  1  0     0  0
 12 14  1  0     0  0
 13 15  1  0     0  0
 14 16  1  0     0  0
 15 17  1  0     0  0
 16 17  1  0     0  0
 12 18  1  0     0  0
 13  7  1  6     0  0
 15 19  1  6     0  0
 17 20  1  1     0  0
 16 21  1  6     0  0
M  END
> <ID>
CHEBI:59641

> <NAME>
alpha-L-Rhap-(1->2)-L-Rhap

> <DEFINITION>
A glycosylrhamnose consisting of two L-rhamnopyranose units joined by an α(1→2) linkage.

> <STAR>
3

> <SYNONYM>
Rhaalpha1-2Rha; alpha-L-Rha-(1->2)-L-Rha; 6-deoxy-alpha-L-mannopyranosyl-(1->2)-6-deoxy-L-mannopyranose; 6-deoxy-2-O-(6-deoxy-alpha-L-mannopyranosyl)-L-mannopyranose; 2-O-(alpha-L-rhamnopyranosyl)-L-rhamnopyranose

> <IUPAC_NAME>
alpha-L-rhamnopyranosyl-(1->2)-L-rhamnopyranose

> <FORMULA>
C12H22O9

> <MASS>
310.298

> <MONOISOTOPIC_MASS>
310.12638

> <CHARGE>
0

> <SMILES>
[C@@H]1([C@@H]([C@@H]([C@H]([C@@H](O1)C)O)O)O)O[C@H]2C(O[C@H]([C@@H]([C@H]2O)O)C)O

> <INCHI>
InChI=1S/C12H22O9/c1-3-6(14)8(16)10(11(18)19-3)21-12-9(17)7(15)5(13)4(2)20-12/h3-18H,1-2H3/t3-,4-,5-,6-,7+,8+,9+,10+,11?,12-/m0/s1

> <INCHIKEY>
LGZDMFLDPIGJEV-RKTLQUISSA-N

> <BEILSTEIN_REGISTRY_NUMBER>
1686135

> <REAXYS_REGISTRY_NUMBER>
1686135

> <PUBMED_CITATION>
2438343

$$$$

Marvin  07261012302D          

 51 54  0  0  1  0            999 V2000
   10.8540   -3.8464    0.0000 O   0  0  0  0  0  0  0  0  0  0  0  0
   11.5685   -4.2589    0.0000 C   0  0  2  0  0  0  0  0  0  0  0  0
   12.2829   -3.8464    0.0000 O   0  0  0  0  0  0  0  0  0  0  0  0
   11.5685   -5.0839    0.0000 C   0  0  1  0  0  0  0  0  0  0  0  0
   12.2829   -5.4964    0.0000 O   0  0  0  0  0  0  0  0  0  0  0  0
   10.8540   -5.4964    0.0000 C   0  0  1  0  0  0  0  0  0  0  0  0
   10.8540   -6.3214    0.0000 O   0  0  0  0  0  0  0  0  0  0  0  0
   10.1395   -5.0839    0.0000 C   0  0  2  0  0  0  0  0  0  0  0  0
    9.4252   -5.4964    0.0000 O   0  0  0  0  0  0  0  0  0  0  0  0
   10.1395   -4.2589    0.0000 C   0  0  1  0  0  0  0  0  0  0  0  0
   10.1395   -3.4339    0.0000 H   0  0  0  0  0  0  0  0  0  0  0  0
    8.7107   -4.2589    0.0000 C   0  0  0  0  0  0  0  0  0  0  0  0
    7.9962   -3.8464    0.0000 O   0  0  0  0  0  0  0  0  0  0  0  0
    9.4252   -3.8464    0.0000 C   0  0  2  0  0  0  0  0  0  0  0  0
    9.4252   -3.0214    0.0000 O   0  0  0  0  0  0  0  0  0  0  0  0
    7.2816   -8.3839    0.0000 C   0  0  1  0  0  0  0  0  0  0  0  0
    7.2816   -9.2089    0.0000 C   0  0  1  0  0  0  0  0  0  0  0  0
    6.5671   -7.9714    0.0000 O   0  0  0  0  0  0  0  0  0  0  0  0
    6.5671   -9.6214    0.0000 C   0  0  2  0  0  0  0  0  0  0  0  0
    5.8527   -8.3839    0.0000 C   0  0  1  0  0  0  0  0  0  0  0  0
    5.8527   -9.2089    0.0000 C   0  0  2  0  0  0  0  0  0  0  0  0
    7.9961   -7.9714    0.0000 O   0  0  0  0  0  0  0  0  0  0  0  0
    7.9961   -9.6214    0.0000 O   0  0  0  0  0  0  0  0  0  0  0  0
    6.5671  -10.4464    0.0000 O   0  0  0  0  0  0  0  0  0  0  0  0
    5.1382   -9.6214    0.0000 O   0  0  0  0  0  0  0  0  0  0  0  0
    5.1382   -7.9714    0.0000 C   0  0  0  0  0  0  0  0  0  0  0  0
    4.4237   -8.3839    0.0000 O   0  0  0  0  0  0  0  0  0  0  0  0
   10.1396   -6.7339    0.0000 C   0  0  2  0  0  0  0  0  0  0  0  0
   10.1396   -7.5589    0.0000 C   0  0  1  0  0  0  0  0  0  0  0  0
    9.4250   -6.3214    0.0000 O   0  0  0  0  0  0  0  0  0  0  0  0
    9.4250   -7.9714    0.0000 C   0  0  2  0  0  0  0  0  0  0  0  0
    8.7106   -6.7339    0.0000 C   0  0  1  0  0  0  0  0  0  0  0  0
    8.7106   -7.5589    0.0000 C   0  0  1  0  0  0  0  0  0  0  0  0
   10.8540   -7.9714    0.0000 O   0  0  0  0  0  0  0  0  0  0  0  0
    9.4250   -8.7964    0.0000 O   0  0  0  0  0  0  0  0  0  0  0  0
    7.9961   -6.3214    0.0000 C   0  0  0  0  0  0  0  0  0  0  0  0
    7.2816   -6.7339    0.0000 O   0  0  0  0  0  0  0  0  0  0  0  0
   12.9973   -5.9089    0.0000 C   0  0  2  0  0  0  0  0  0  0  0  0
   13.7118   -5.4964    0.0000 C   0  0  1  0  0  0  0  0  0  0  0  0
   12.9973   -6.7339    0.0000 O   0  0  0  0  0  0  0  0  0  0  0  0
   14.4263   -5.9090    0.0000 C   0  0  2  0  0  0  0  0  0  0  0  0
   13.7117   -7.1464    0.0000 C   0  0  1  0  0  0  0  0  0  0  0  0
   14.4263   -6.7340    0.0000 C   0  0  1  0  0  0  0  0  0  0  0  0
   13.7119   -4.6714    0.0000 N   0  0  0  0  0  0  0  0  0  0  0  0
   15.1408   -5.4965    0.0000 O   0  0  0  0  0  0  0  0  0  0  0  0
   15.1407   -7.1465    0.0000 O   0  0  0  0  0  0  0  0  0  0  0  0
   13.7117   -7.9714    0.0000 C   0  0  0  0  0  0  0  0  0  0  0  0
   14.4262   -8.3840    0.0000 O   0  0  0  0  0  0  0  0  0  0  0  0
   14.4263   -4.2590    0.0000 C   0  0  0  0  0  0  0  0  0  0  0  0
   14.4264   -3.4340    0.0000 O   0  0  0  0  0  0  0  0  0  0  0  0
   15.1408   -4.6715    0.0000 C   0  0  0  0  0  0  0  0  0  0  0  0
  1 10  1  0  0  0  0
  1  2  1  0  0  0  0
 10  8  1  0  0  0  0
  8  6  1  0  0  0  0
  6  4  1  0  0  0  0
  4  2  1  0  0  0  0
  2  3  1  6  0  0  0
  4  5  1  1  0  0  0
  6  7  1  1  0  0  0
  8  9  1  6  0  0  0
 10 14  1  0  0  0  0
 10 11  1  6  0  0  0
 14 12  1  0  0  0  0
 12 13  1  0  0  0  0
 14 15  1  6  0  0  0
 16 17  1  0  0  0  0
 16 18  1  0  0  0  0
 17 19  1  0  0  0  0
 18 20  1  0  0  0  0
 19 21  1  0  0  0  0
 20 21  1  0  0  0  0
 16 22  1  1  0  0  0
 17 23  1  6  0  0  0
 19 24  1  1  0  0  0
 21 25  1  1  0  0  0
 20 26  1  1  0  0  0
 27 26  1  0  0  0  0
 28 29  1  0  0  0  0
 28 30  1  0  0  0  0
 29 31  1  0  0  0  0
 30 32  1  0  0  0  0
 31 33  1  0  0  0  0
 32 33  1  0  0  0  0
 28  7  1  6  0  0  0
 29 34  1  6  0  0  0
 31 35  1  1  0  0  0
 33 22  1  6  0  0  0
 32 36  1  1  0  0  0
 37 36  1  0  0  0  0
 38 39  1  0  0  0  0
 38 40  1  0  0  0  0
 39 41  1  0  0  0  0
 40 42  1  0  0  0  0
 41 43  1  0  0  0  0
 42 43  1  0  0  0  0
 38  5  1  6  0  0  0
 39 44  1  6  0  0  0
 41 45  1  1  0  0  0
 43 46  1  6  0  0  0
 42 47  1  1  0  0  0
 48 47  1  0  0  0  0
 50 49  2  0  0  0  0
 51 49  1  0  0  0  0
 44 49  1  0  0  0  0
M  END
> <ID>
CHEBI:59861

> <NAME>
beta-D-Gal-(1->4)-alpha-D-Glc-(1->3)-[alpha-D-GlcNAc-(1->2)]-alpha-L-Hep

> <DEFINITION>
An amino tetrasaccharide and epitope consisting of L-glycero-α-D-manno-heptopyranose having a lactosyl moiety attached at the 3-position via an α-linkage and an α-N-acetylglucosaminyl residue at the 2-position.

> <STAR>
3

> <SYNONYM>
Galbeta1-4Glcalpha1-3(GlcNAcalpha1-2)Hepalpha; beta-Gal-(1->4)-alpha-Glc-(1->3)-[alpha-GlcNAc-(1->2)]-alpha-Hep; beta-D-Galp-(1->4)-alpha-D-Glcp-(1->3)-[alpha-D-GlcpNAc-(1->2)]-alpha-L-Hepp

> <IUPAC_NAME>
2-acetamido-2-deoxy-alpha-D-glucopyranosyl-(1->2)-[beta-D-galactopyranosyl-(1->4)-alpha-D-glucopyranosyl-(1->3)]-L-glycero-alpha-D-manno-heptopyranose

> <FORMULA>
C27H47NO22

> <MASS>
737.65560

> <MONOISOTOPIC_MASS>
737.25897

> <CHARGE>
0

> <SMILES>
[H][C@@]1(O[C@H](O)[C@@H](O[C@H]2O[C@H](CO)[C@@H](O)[C@H](O)[C@H]2NC(C)=O)[C@@H](O[C@H]2O[C@H](CO)[C@@H](O[C@@H]3O[C@H](CO)[C@H](O)[C@H](O)[C@H]3O)[C@H](O)[C@H]2O)[C@@H]1O)[C@@H](O)CO

> <INCHI>
InChI=1S/C27H47NO22/c1-6(33)28-11-14(37)12(35)8(3-30)44-25(11)50-23-22(19(42)20(7(34)2-29)47-24(23)43)49-27-18(41)16(39)21(10(5-32)46-27)48-26-17(40)15(38)13(36)9(4-31)45-26/h7-27,29-32,34-43H,2-5H2,1H3,(H,28,33)/t7-,8+,9+,10+,11+,12+,13-,14+,15-,16+,17+,18+,19+,20+,21+,22-,23-,24-,25+,26-,27+/m0/s1

> <INCHIKEY>
QMCUNCYYLYBNSE-GKSOKUMCSA-N

> <PUBMED_CITATION>
10593954

$$$$

Marvin  07261017032D          

 21 22  0  0  1  0            999 V2000
    8.3377  -19.2633    0.0000 C   0  0  2  0  0  0  0  0  0  0  0  0
    8.3377  -20.0883    0.0000 C   0  0  2  0  0  0  0  0  0  0  0  0
    7.6232  -18.8508    0.0000 O   0  0  0  0  0  0  0  0  0  0  0  0
    7.6232  -20.5008    0.0000 C   0  0  2  0  0  0  0  0  0  0  0  0
    6.9087  -19.2633    0.0000 C   0  0  1  0  0  0  0  0  0  0  0  0
    6.9087  -20.0883    0.0000 C   0  0  1  0  0  0  0  0  0  0  0  0
    9.0522  -18.8508    0.0000 O   0  0  0  0  0  0  0  0  0  0  0  0
    9.0522  -20.5008    0.0000 O   0  0  0  0  0  0  0  0  0  0  0  0
    7.6231  -21.3258    0.0000 O   0  0  0  0  0  0  0  0  0  0  0  0
    6.1943  -20.5008    0.0000 O   0  0  0  0  0  0  0  0  0  0  0  0
    6.1943  -18.8508    0.0000 C   0  0  0  0  0  0  0  0  0  0  0  0
    5.4798  -19.2633    0.0000 O   0  0  0  0  0  0  0  0  0  0  0  0
    6.9087  -21.7383    0.0000 C   0  0  1  0  0  0  0  0  0  0  0  0
    6.1941  -21.3257    0.0000 O   0  0  0  0  0  0  0  0  0  0  0  0
    5.4797  -21.7383    0.0000 C   0  0  1  0  0  0  0  0  0  0  0  0
    6.1941  -22.9758    0.0000 C   0  0  0  0  0  0  0  0  0  0  0  0
    6.9087  -22.5633    0.0000 C   0  0  1  0  0  0  0  0  0  0  0  0
    5.4797  -22.5633    0.0000 C   0  0  1  0  0  0  0  0  0  0  0  0
    4.7652  -22.9758    0.0000 O   0  0  0  0  0  0  0  0  0  0  0  0
    7.6231  -22.9758    0.0000 O   0  0  0  0  0  0  0  0  0  0  0  0
    4.7652  -21.3258    0.0000 C   0  0  0  0  0  0  0  0  0  0  0  0
  1  2  1  0  0  0  0
  1  3  1  0  0  0  0
  2  4  1  0  0  0  0
  3  5  1  0  0  0  0
  4  6  1  0  0  0  0
  5  6  1  0  0  0  0
  1  7  1  6  0  0  0
  2  8  1  1  0  0  0
  4  9  1  1  0  0  0
  6 10  1  6  0  0  0
  5 11  1  1  0  0  0
 12 11  1  0  0  0  0
 13  9  1  6  0  0  0
 17 13  1  0  0  0  0
 14 13  1  0  0  0  0
 14 15  1  0  0  0  0
 15 18  1  0  0  0  0
 18 16  1  0  0  0  0
 16 17  1  0  0  0  0
 15 21  1  1  0  0  0
 17 20  1  6  0  0  0
 18 19  1  1  0  0  0
M  END
> <ID>
CHEBI:59867

> <NAME>
3-O-alpha-abequopyranosyl-alpha-D-mannopyranose

> <DEFINITION>
A glycosylmannose consisting of α-D-mannopyranose having an α-abequopyranosyl residue attached at the 3-position.

> <STAR>
3

> <SYNONYM>
S. thyphimurium O-antigen 4 determinant; alpha-abequosyl-(1->3)-alpha-D-mannose; alpha-abequopyranosyl-(1->3)-alpha-D-mannopyranose; alpha-Abep-(1->3)-alpha-D-Manp; alpha-Abe-alpha-(1->3)-D-Man; Abealpha1-3Manalpha; 3-O-alpha-Abep-alpha-D-Manp; 3-O-alpha-Abe-alpha-D-Man; 3-O-(3,6-dideoxy-alpha-D-xylo-hexopyranosyl)-alpha-D-mannopyranose

> <IUPAC_NAME>
3,6-dideoxy-alpha-D-xylo-hexopyranosyl-(1->3)-alpha-D-mannopyranose

> <FORMULA>
C12H22O9

> <MASS>
310.29770

> <MONOISOTOPIC_MASS>
310.12638

> <CHARGE>
0

> <SMILES>
C[C@H]1O[C@H](O[C@@H]2[C@H](O)[C@@H](O)O[C@H](CO)[C@H]2O)[C@H](O)C[C@H]1O

> <INCHI>
InChI=1S/C12H22O9/c1-4-5(14)2-6(15)12(19-4)21-10-8(16)7(3-13)20-11(18)9(10)17/h4-18H,2-3H2,1H3/t4-,5-,6-,7-,8-,9+,10+,11+,12-/m1/s1

> <INCHIKEY>
QVRWXXYMZHICKL-LRYUFDBCSA-N

> <PUBMED_CITATION>
17558551; 327249; 6163199

$$$$

Marvin  08031010452D          

 38 41  0  0  1  0            999 V2000
   22.4830  -14.1014    0.0000 O   0  0  0  0  0  0  0  0  0  0  0  0
   21.8156  -14.5864    0.0000 C   0  0  1  0  0  0  0  0  0  0  0  0
   23.1504  -14.5864    0.0000 C   0  0  2  0  0  0  0  0  0  0  0  0
   23.9350  -14.3314    0.0000 O   0  0  0  0  0  0  0  0  0  0  0  0
   22.8955  -15.3710    0.0000 C   0  0  1  0  0  0  0  0  0  0  0  0
   23.3804  -16.0385    0.0000 O   0  0  0  0  0  0  0  0  0  0  0  0
   22.0704  -15.3710    0.0000 C   0  0  2  0  0  0  0  0  0  0  0  0
   21.5855  -16.0385    0.0000 O   0  0  0  0  0  0  0  0  0  0  0  0
   21.0309  -14.3314    0.0000 C   0  0  0  0  0  0  0  0  0  0  0  0
   20.4177  -14.8834    0.0000 O   0  0  0  0  0  0  0  0  0  0  0  0
   19.0153  -14.1664    0.0000 O   0  0  0  0  0  0  0  0  0  0  0  0
   18.3479  -14.6513    0.0000 C   0  0  1  0  0  0  0  0  0  0  0  0
   19.6827  -14.6513    0.0000 C   0  0  1  0  0  0  0  0  0  0  0  0
   19.4278  -15.4359    0.0000 C   0  0  1  0  0  0  0  0  0  0  0  0
   19.9126  -16.1035    0.0000 O   0  0  0  0  0  0  0  0  0  0  0  0
   18.6028  -15.4359    0.0000 C   0  0  2  0  0  0  0  0  0  0  0  0
   18.1179  -16.1035    0.0000 O   0  0  0  0  0  0  0  0  0  0  0  0
   17.5632  -14.3964    0.0000 C   0  0  0  0  0  0  0  0  0  0  0  0
   15.5683  -14.0512    0.0000 O   0  0  0  0  0  0  0  0  0  0  0  0
   14.9008  -14.5361    0.0000 C   0  0  1  0  0  0  0  0  0  0  0  0
   16.2357  -14.5361    0.0000 C   0  0  1  0  0  0  0  0  0  0  0  0
   15.9808  -15.3207    0.0000 C   0  0  1  0  0  0  0  0  0  0  0  0
   16.4657  -16.3560    0.0000 O   0  0  0  0  0  0  0  0  0  0  0  0
   15.1558  -15.3207    0.0000 C   0  0  2  0  0  0  0  0  0  0  0  0
   14.6709  -15.9881    0.0000 O   0  0  0  0  0  0  0  0  0  0  0  0
   14.1162  -14.2812    0.0000 C   0  0  0  0  0  0  0  0  0  0  0  0
   13.5029  -14.8332    0.0000 O   0  0  0  0  0  0  0  0  0  0  0  0
   15.2378  -16.7044    0.0000 O   0  0  0  0  0  0  0  0  0  0  0  0
   14.5704  -17.1893    0.0000 C   0  0  1  0  0  0  0  0  0  0  0  0
   15.9052  -17.1893    0.0000 C   0  0  2  0  0  0  0  0  0  0  0  0
   15.6503  -17.9738    0.0000 C   0  0  1  0  0  0  0  0  0  0  0  0
   16.1352  -18.6413    0.0000 O   0  0  0  0  0  0  0  0  0  0  0  0
   14.8253  -17.9738    0.0000 C   0  0  2  0  0  0  0  0  0  0  0  0
   14.3404  -18.6413    0.0000 O   0  0  0  0  0  0  0  0  0  0  0  0
   13.7857  -16.9344    0.0000 C   0  0  0  0  0  0  0  0  0  0  0  0
   13.1726  -17.4864    0.0000 O   0  0  0  0  0  0  0  0  0  0  0  0
   24.5482  -14.8834    0.0000 C   0  0  0  0  0  0  0  0  0  0  0  0
   16.9502  -14.9486    0.0000 O   0  0  0  0  0  0  0  0  0  0  0  0
  1  2  1  0  0  0  0
  1  3  1  0  0  0  0
  2  7  1  0  0  0  0
  2  9  1  1  0  0  0
  5  3  1  0  0  0  0
  3  4  1  6  0  0  0
  7  5  1  0  0  0  0
  5  6  1  1  0  0  0
  7  8  1  6  0  0  0
  9 10  1  0  0  0  0
 11 12  1  0  0  0  0
 11 13  1  0  0  0  0
 12 16  1  0  0  0  0
 14 13  1  0  0  0  0
 13 10  1  6  0  0  0
 16 14  1  0  0  0  0
 14 15  1  1  0  0  0
 16 17  1  6  0  0  0
 12 18  1  1  0  0  0
 18 38  1  0  0  0  0
 19 20  1  0  0  0  0
 19 21  1  0  0  0  0
 20 24  1  0  0  0  0
 20 26  1  1  0  0  0
 22 21  1  0  0  0  0
 24 22  1  0  0  0  0
 22 23  1  1  0  0  0
 24 25  1  6  0  0  0
 26 27  1  0  0  0  0
 28 29  1  0  0  0  0
 28 30  1  0  0  0  0
 29 33  1  0  0  0  0
 29 35  1  1  0  0  0
 31 30  1  0  0  0  0
 30 23  1  1  0  0  0
 33 31  1  0  0  0  0
 31 32  1  1  0  0  0
 33 34  1  6  0  0  0
 35 36  1  0  0  0  0
  4 37  1  0  0  0  0
 21 38  1  6  0  0  0
M  END
> <ID>
CHEBI:59943

> <NAME>
beta-D-Araf-(1->2)-alpha-D-Araf-(1->5)-alpha-D-Araf-(1->5)-alpha-D-Araf-OMe

> <DEFINITION>
A tetrasaccharide derivative that is a methyl tetraarabinofuranoside corresponding to part of the arabinomannanan portion of the lipoarabinomannan from Mycobacterium tuberculosis.

> <STAR>
3

> <SYNONYM>
methyl 5-O-(5-O-(2-O-(beta-D-arabinofuranosyl)-alpha-D-arabinofuranosyl)-alpha-D-arabinofuranosyl)-alpha-D-arabinofuranoside; beta-D-Ara-(1->2)-alpha-D-Ara-(1->5)-alpha-D-Ara-(1->5)-alpha-D-Ara-OMe; Arabeta1-2Araalpha1-5Araalpha1-5AraalphaOMe

> <IUPAC_NAME>
methyl beta-D-arabinofuranosyl-(1->2)-alpha-D-arabinofuranosyl-(1->5)-alpha-D-arabinofuranosyl-(1->5)-alpha-D-arabinofuranoside

> <FORMULA>
C21H36O17

> <MASS>
560.50030

> <MONOISOTOPIC_MASS>
560.19525

> <CHARGE>
0

> <SMILES>
CO[C@H]1O[C@H](CO[C@H]2O[C@H](CO[C@H]3O[C@H](CO)[C@@H](O)[C@@H]3O[C@@H]3O[C@H](CO)[C@@H](O)[C@@H]3O)[C@@H](O)[C@@H]2O)[C@@H](O)[C@@H]1O

> <INCHI>
InChI=1S/C21H36O17/c1-31-18-14(28)11(25)8(36-18)4-32-19-15(29)12(26)9(37-19)5-33-21-17(13(27)7(3-23)35-21)38-20-16(30)10(24)6(2-22)34-20/h6-30H,2-5H2,1H3/t6-,7-,8-,9-,10-,11-,12-,13-,14+,15+,16+,17+,18+,19+,20+,21+/m1/s1

> <INCHIKEY>
DLVJFVXILROURN-RZTFWLHVSA-N

> <BEILSTEIN_REGISTRY_NUMBER>
9106475

> <REAXYS_REGISTRY_NUMBER>
9106475

> <PUBMED_CITATION>
11856034; 19577573

$$$$

Marvin  08031011172D          

 38 41  0  0  1  0            999 V2000
    5.9145   -7.2622    0.0000 O   0  0  0  0  0  0  0  0  0  0  0  0
    5.2471   -7.7471    0.0000 C   0  0  1  0  0  0  0  0  0  0  0  0
    6.5820   -7.7471    0.0000 C   0  0  1  0  0  0  0  0  0  0  0  0
    6.3271   -8.5317    0.0000 C   0  0  1  0  0  0  0  0  0  0  0  0
    6.8816   -9.5670    0.0000 O   0  0  0  0  0  0  0  0  0  0  0  0
    5.5020   -8.5317    0.0000 C   0  0  2  0  0  0  0  0  0  0  0  0
    5.0171   -9.1992    0.0000 O   0  0  0  0  0  0  0  0  0  0  0  0
    4.4624   -7.4922    0.0000 C   0  0  0  0  0  0  0  0  0  0  0  0
    3.8494   -8.0442    0.0000 O   0  0  0  0  0  0  0  0  0  0  0  0
    5.6263   -9.9857    0.0000 O   0  0  0  0  0  0  0  0  0  0  0  0
    4.9589  -10.4706    0.0000 C   0  0  1  0  0  0  0  0  0  0  0  0
    6.2937  -10.4706    0.0000 C   0  0  2  0  0  0  0  0  0  0  0  0
    6.0388  -11.2551    0.0000 C   0  0  1  0  0  0  0  0  0  0  0  0
    6.5237  -11.9227    0.0000 O   0  0  0  0  0  0  0  0  0  0  0  0
    5.2138  -11.2551    0.0000 C   0  0  2  0  0  0  0  0  0  0  0  0
    4.7289  -11.9227    0.0000 O   0  0  0  0  0  0  0  0  0  0  0  0
    4.1742  -10.2157    0.0000 C   0  0  0  0  0  0  0  0  0  0  0  0
    3.5611  -10.7676    0.0000 O   0  0  0  0  0  0  0  0  0  0  0  0
   11.7318   -5.4901    0.0000 O   0  0  0  0  0  0  0  0  0  0  0  0
   11.0644   -5.9751    0.0000 C   0  0  1  0  0  0  0  0  0  0  0  0
   12.3992   -5.9751    0.0000 C   0  0  2  0  0  0  0  0  0  0  0  0
   13.1838   -5.7201    0.0000 O   0  0  0  0  0  0  0  0  0  0  0  0
   12.1443   -6.7597    0.0000 C   0  0  1  0  0  0  0  0  0  0  0  0
   12.6292   -7.4272    0.0000 O   0  0  0  0  0  0  0  0  0  0  0  0
   11.3193   -6.7597    0.0000 C   0  0  2  0  0  0  0  0  0  0  0  0
   10.8344   -7.4272    0.0000 O   0  0  0  0  0  0  0  0  0  0  0  0
   10.2797   -5.7201    0.0000 C   0  0  0  0  0  0  0  0  0  0  0  0
    9.6666   -6.2721    0.0000 O   0  0  0  0  0  0  0  0  0  0  0  0
    8.2642   -5.5551    0.0000 O   0  0  0  0  0  0  0  0  0  0  0  0
    7.5967   -6.0400    0.0000 C   0  0  1  0  0  0  0  0  0  0  0  0
    8.9315   -6.0400    0.0000 C   0  0  1  0  0  0  0  0  0  0  0  0
    8.6767   -6.8246    0.0000 C   0  0  1  0  0  0  0  0  0  0  0  0
    9.1615   -7.4922    0.0000 O   0  0  0  0  0  0  0  0  0  0  0  0
    7.8516   -6.8246    0.0000 C   0  0  2  0  0  0  0  0  0  0  0  0
    7.3667   -7.4922    0.0000 O   0  0  0  0  0  0  0  0  0  0  0  0
    6.8121   -5.7851    0.0000 C   0  0  0  0  0  0  0  0  0  0  0  0
    6.6406   -4.9781    0.0000 O   0  0  0  0  0  0  0  0  0  0  0  0
   13.7970   -6.2721    0.0000 C   0  0  0  0  0  0  0  0  0  0  0  0
  1  2  1  0  0  0  0
  1  3  1  0  0  0  0
  2  6  1  0  0  0  0
  2  8  1  1  0  0  0
  4  3  1  0  0  0  0
  6  4  1  0  0  0  0
  4  5  1  1  0  0  0
  6  7  1  6  0  0  0
  8  9  1  0  0  0  0
 10 11  1  0  0  0  0
 10 12  1  0  0  0  0
 11 15  1  0  0  0  0
 11 17  1  1  0  0  0
 13 12  1  0  0  0  0
 12  5  1  1  0  0  0
 15 13  1  0  0  0  0
 13 14  1  1  0  0  0
 15 16  1  6  0  0  0
 17 18  1  0  0  0  0
 19 20  1  0  0  0  0
 19 21  1  0  0  0  0
 20 25  1  0  0  0  0
 20 27  1  1  0  0  0
 23 21  1  0  0  0  0
 21 22  1  6  0  0  0
 25 23  1  0  0  0  0
 23 24  1  1  0  0  0
 25 26  1  6  0  0  0
 27 28  1  0  0  0  0
 29 30  1  0  0  0  0
 29 31  1  0  0  0  0
 30 34  1  0  0  0  0
 32 31  1  0  0  0  0
 31 28  1  6  0  0  0
 34 32  1  0  0  0  0
 32 33  1  1  0  0  0
 34 35  1  6  0  0  0
 30 36  1  1  0  0  0
 36 37  1  0  0  0  0
 22 38  1  0  0  0  0
  3 35  1  6  0  0  0
M  END
> <ID>
CHEBI:59944

> <NAME>
beta-D-Araf-(1->2)-alpha-D-Araf-(1->3)-alpha-D-Araf-(1->5)-alpha-D-Araf-OMe

> <DEFINITION>
A tetrasaccharide derivative that is a methyl tetraarabinofuranoside corresponding to part of the arabinomannanan portion of the lipoarabinomannan from Mycobacterium tuberculosis.

> <STAR>
3

> <SYNONYM>
methyl 5-O-(3-O-(2-O-(beta-D-arabinofuranosyl)-alpha-D-arabinofuranosyl)-alpha-D-arabinofuranosyl)-alpha-D-arabinofuranoside; beta-D-Ara-(1->2)-alpha-D-Ara-(1->3)-alpha-D-Ara-(1->5)-alpha-D-Ara-OMe; Arabeta1-2Araalpha1-3Araalpha1-5AraalphaOMe

> <IUPAC_NAME>
methyl beta-D-arabinofuranosyl-(1->2)-alpha-D-arabinofuranosyl-(1->3)-alpha-D-arabinofuranosyl-(1->5)-alpha-D-arabinofuranoside

> <FORMULA>
C21H36O17

> <MASS>
560.50030

> <MONOISOTOPIC_MASS>
560.19525

> <CHARGE>
0

> <SMILES>
CO[C@H]1O[C@H](CO[C@H]2O[C@H](CO)[C@@H](O[C@H]3O[C@H](CO)[C@@H](O)[C@@H]3O[C@@H]3O[C@H](CO)[C@@H](O)[C@@H]3O)[C@@H]2O)[C@@H](O)[C@@H]1O

> <INCHI>
InChI=1S/C21H36O17/c1-31-18-13(28)11(26)9(36-18)5-32-19-15(30)16(8(4-24)35-19)37-21-17(12(27)7(3-23)34-21)38-20-14(29)10(25)6(2-22)33-20/h6-30H,2-5H2,1H3/t6-,7-,8-,9-,10-,11-,12-,13+,14+,15+,16-,17+,18+,19+,20+,21-/m1/s1

> <INCHIKEY>
QGMGIKPYNHLWJP-PZAQJLKLSA-N

> <BEILSTEIN_REGISTRY_NUMBER>
9106003

> <REAXYS_REGISTRY_NUMBER>
9106003

> <PUBMED_CITATION>
11856034; 19577573

$$$$

Marvin  08031016042D          

  9 10  0  0  0  0            999 V2000
   -1.7089    1.4438    0.0000 N   0  0  0  0  0  0  0  0  0  0  0  0
   -2.4234    1.0313    0.0000 C   0  0  0  0  0  0  0  0  0  0  0  0
   -2.4234    0.2062    0.0000 C   0  0  0  0  0  0  0  0  0  0  0  0
   -1.7089   -0.2063    0.0000 C   0  0  0  0  0  0  0  0  0  0  0  0
   -0.9945    0.2062    0.0000 C   0  0  0  0  0  0  0  0  0  0  0  0
   -0.9945    1.0313    0.0000 C   0  0  0  0  0  0  0  0  0  0  0  0
   -0.2098    1.2862    0.0000 N   0  0  0  0  0  0  0  0  0  0  0  0
   -0.2098   -0.0487    0.0000 N   0  0  0  0  0  0  0  0  0  0  0  0
    0.2751    0.6187    0.0000 C   0  0  0  0  0  0  0  0  0  0  0  0
  1  2  1  0  0  0  0
  1  6  2  0  0  0  0
  2  3  2  0  0  0  0
  3  4  1  0  0  0  0
  4  5  2  0  0  0  0
  5  8  1  0  0  0  0
  6  5  1  0  0  0  0
  7  6  1  0  0  0  0
  7  9  2  0  0  0  0
  8  9  1  0  0  0  0
M  END
> <ID>
CHEBI:59952

> <NAME>
4-azabenzimidazole

> <DEFINITION>
The [4,5-b]-fused isomer of imidazopyridine.

> <STAR>
3

> <SYNONYM>
Pyrido(2,3-d)imidazole; azabenzimidazole; 7-Azabenzimidazole; 3H-imidazo[4,5-b]pyridine; 3,4-Diazaindole; 1-Deazapurine

> <IUPAC_NAME>
1H-imidazo[4,5-b]pyridine

> <FORMULA>
C6H5N3

> <MASS>
119.12400

> <MONOISOTOPIC_MASS>
119.04835

> <CHARGE>
0

> <SMILES>
c1cnc2nc[nH]c2c1

> <INCHI>
InChI=1S/C6H5N3/c1-2-5-6(7-3-1)9-4-8-5/h1-4H,(H,7,8,9)

> <INCHIKEY>
GAMYYCRTACQSBR-UHFFFAOYSA-N

> <BEILSTEIN_REGISTRY_NUMBER>
2600

> <CAS_REGISTRY_NUMBER>
273-21-2

> <GMELIN_REGISTRY_NUMBER>
2527614

> <REAXYS_REGISTRY_NUMBER>
2600

> <CHEMIDPLUS>
273-21-2

> <PUBMED_CITATION>
8070089

$$$$

Marvin  08041011342D          

 18 18  0  0  1  0            999 V2000
   16.0977   -4.3171    0.0000 O   0  0  0  0  0  0  0  0  0  0  0  0
   16.0977   -5.1421    0.0000 C   0  0  0  0  0  0  0  0  0  0  0  0
   16.8122   -5.5546    0.0000 O   0  0  0  0  0  0  0  0  0  0  0  0
   15.3833   -5.5546    0.0000 C   0  0  1  0  0  0  0  0  0  0  0  0
   15.3833   -6.3795    0.0000 N   0  0  0  0  0  0  0  0  0  0  0  0
   14.6688   -5.1421    0.0000 C   0  0  0  0  0  0  0  0  0  0  0  0
   13.9543   -5.5546    0.0000 C   0  0  0  0  0  0  0  0  0  0  0  0
   13.2400   -5.1421    0.0000 C   0  0  0  0  0  0  0  0  0  0  0  0
   12.5255   -5.5546    0.0000 N   0  0  0  0  0  0  0  0  0  0  0  0
   11.8110   -5.1421    0.0000 C   0  0  0  0  0  0  0  0  0  0  0  0
   11.8110   -4.3171    0.0000 N   0  0  0  0  0  0  0  0  0  0  0  0
   11.0965   -5.5546    0.0000 N   0  0  0  0  0  0  0  0  0  0  0  0
   11.0965   -3.9046    0.0000 C   0  0  0  0  0  0  0  0  0  0  0  0
   10.3821   -4.3171    0.0000 C   0  0  0  0  0  0  0  0  0  0  0  0
   10.3821   -5.1421    0.0000 C   0  0  0  0  0  0  0  0  0  0  0  0
   11.0966   -3.0796    0.0000 C   0  0  0  0  0  0  0  0  0  0  0  0
    9.6676   -5.5546    0.0000 C   0  0  0  0  0  0  0  0  0  0  0  0
    9.6676   -3.9046    0.0000 O   0  0  0  0  0  0  0  0  0  0  0  0
  2  1  2  0  0  0  0
  3  2  1  0  0  0  0
  4  2  1  0  0  0  0
  4  5  1  1  0  0  0
  6  4  1  0  0  0  0
  7  6  1  0  0  0  0
  9  8  1  0  0  0  0
  7  8  1  0  0  0  0
 10  9  1  0  0  0  0
 12 10  1  0  0  0  0
 15 12  2  0  0  0  0
 11 10  2  0  0  0  0
 13 11  1  0  0  0  0
 13 14  2  0  0  0  0
 14 15  1  0  0  0  0
 13 16  1  0  0  0  0
 15 17  1  0  0  0  0
 14 18  1  0  0  0  0
M  END
> <ID>
CHEBI:59962

> <NAME>
argpyrimidine

> <DEFINITION>
A member of the class of hydroxypyrimidines obtained by cyclocondensation of L-arginine and methylglyoxal; a methyl glyoxal-derived advanced glycation end-product (AGE) in familial amyloidotic polyneuropathy and human cancers.

> <STAR>
3

> <SYNONYM>
N(5)-(5-hydroxy-4,6-dimethylpyrimidin-2-yl)-L-ornithine; N(5)-(5-hydroxy-4,6-dimethyl-2-pyrimidinyl)-ornithine; (S)-2-amino-5-(5-hydroxy-4,6-dimethyl-pyrimidin-2-ylamino)-pentanoic acid

> <IUPAC_NAME>
N(5)-(5-hydroxy-4,6-dimethylpyrimidin-2-yl)-L-ornithine

> <FORMULA>
C11H18N4O3

> <MASS>
254.28560

> <MONOISOTOPIC_MASS>
254.13789

> <CHARGE>
0

> <SMILES>
Cc1nc(NCCC[C@H](N)C(O)=O)nc(C)c1O

> <INCHI>
InChI=1S/C11H18N4O3/c1-6-9(16)7(2)15-11(14-6)13-5-3-4-8(12)10(17)18/h8,16H,3-5,12H2,1-2H3,(H,17,18)(H,13,14,15)/t8-/m0/s1

> <INCHIKEY>
DCPBQSFZQHFSMR-QMMMGPOBSA-N

> <BEILSTEIN_REGISTRY_NUMBER>
8853749

> <REAXYS_REGISTRY_NUMBER>
8853749

> <PUBMED_CITATION>
11237339; 11328743; 15281912; 16037299; 18256486; 18692042; 22139526; 28487198; 9506998

$$$$

Marvin  08041015292D          

 23 23  0  0  1  0            999 V2000
   18.8244   -4.9085    0.0000 O   0  0  0  0  0  0  0  0  0  0  0  0
   16.6810   -4.4961    0.0000 C   0  0  0  0  0  0  0  0  0  0  0  0
   15.9666   -4.9085    0.0000 C   0  0  0  0  0  0  0  0  0  0  0  0
   15.2520   -4.4961    0.0000 C   0  0  0  0  0  0  0  0  0  0  0  0
   14.5376   -4.9085    0.0000 C   0  0  0  0  0  0  0  0  0  0  0  0
   13.8231   -4.4961    0.0000 N   0  3  0  0  0  0  0  0  0  0  0  0
   18.1101   -4.4959    0.0000 C   0  0  0  0  0  0  0  0  0  0  0  0
   18.1101   -3.6709    0.0000 O   0  0  0  0  0  0  0  0  0  0  0  0
   17.3955   -4.9085    0.0000 C   0  0  1  0  0  0  0  0  0  0  0  0
   17.3955   -5.7336    0.0000 N   0  0  0  0  0  0  0  0  0  0  0  0
    7.4869   -4.9085    0.0000 O   0  0  0  0  0  0  0  0  0  0  0  0
    9.6303   -4.4961    0.0000 C   0  0  0  0  0  0  0  0  0  0  0  0
   10.3448   -4.9085    0.0000 C   0  0  0  0  0  0  0  0  0  0  0  0
   11.0593   -4.4961    0.0000 C   0  0  0  0  0  0  0  0  0  0  0  0
   11.7738   -4.9085    0.0000 C   0  0  0  0  0  0  0  0  0  0  0  0
   12.4882   -4.4961    0.0000 N   0  0  0  0  0  0  0  0  0  0  0  0
    8.2013   -4.4959    0.0000 C   0  0  0  0  0  0  0  0  0  0  0  0
    8.2013   -3.6709    0.0000 O   0  0  0  0  0  0  0  0  0  0  0  0
    8.9158   -4.9085    0.0000 C   0  0  1  0  0  0  0  0  0  0  0  0
    8.9158   -5.7336    0.0000 N   0  0  0  0  0  0  0  0  0  0  0  0
   13.1557   -4.9810    0.0000 C   0  0  0  0  0  0  0  0  0  0  0  0
   12.7432   -3.7115    0.0000 C   0  0  0  0  0  0  0  0  0  0  0  0
   13.5681   -3.7115    0.0000 C   0  0  0  0  0  0  0  0  0  0  0  0
  1  7  1  0  0  0  0
  9  7  1  0  0  0  0
  2  9  1  0  0  0  0
  3  2  1  0  0  0  0
  4  3  1  0  0  0  0
  5  4  1  0  0  0  0
  6  5  1  0  0  0  0
  7  8  2  0  0  0  0
  9 10  1  1  0  0  0
 11 17  1  0  0  0  0
 19 17  1  0  0  0  0
 12 19  1  0  0  0  0
 13 12  1  0  0  0  0
 14 13  1  0  0  0  0
 15 14  1  0  0  0  0
 16 15  1  0  0  0  0
 17 18  2  0  0  0  0
 19 20  1  6  0  0  0
 21 16  1  0  0  0  0
 16 22  1  0  0  0  0
 22 23  2  0  0  0  0
 23  6  1  0  0  0  0
 21  6  2  0  0  0  0
M  CHG  1   6   1
M  END
> <ID>
CHEBI:59965

> <NAME>
glyoxal-lysine dimer

> <DEFINITION>
An imidazolium ion formed via cyclo-dimerisation of L-lysine and glyoxal.

> <STAR>
3

> <SYNONYM>
GOLD

> <IUPAC_NAME>
1,3-bis[(5S)-5-amino-5-carboxypentyl]-1H-imidazol-3-ium

> <FORMULA>
C15H27N4O4

> <MASS>
327.39930

> <MONOISOTOPIC_MASS>
327.20268

> <CHARGE>
1

> <SMILES>
N[C@@H](CCCCn1cc[n+](CCCC[C@H](N)C(O)=O)c1)C(O)=O

> <INCHI>
InChI=1S/C15H26N4O4/c16-12(14(20)21)5-1-3-7-18-9-10-19(11-18)8-4-2-6-13(17)15(22)23/h9-13H,1-8,16-17H2,(H-,20,21,22,23)/p+1/t12-,13-/m0/s1

> <INCHIKEY>
MOISNZWLLXDVFT-STQMWFEESA-O

> <PUBMED_CITATION>
15482946; 9506998

$$$$

Marvin  08041016522D          

 13 13  0  0  0  0            999 V2000
   16.8712   -2.8226    0.0000 C   0  0  0  0  0  0  0  0  0  0  0  0
   16.6177   -3.6075    0.0000 C   0  0  0  0  0  0  0  0  0  0  0  0
   17.2818   -4.0899    0.0000 N   0  0  0  0  0  0  0  0  0  0  0  0
   17.9500   -3.6075    0.0000 C   0  0  0  0  0  0  0  0  0  0  0  0
   17.6962   -2.8226    0.0000 C   0  0  0  0  0  0  0  0  0  0  0  0
   18.7350   -3.8612    0.0000 C   0  0  0  0  0  0  0  0  0  0  0  0
   18.9058   -4.6684    0.0000 O   0  0  0  0  0  0  0  0  0  0  0  0
   15.8326   -3.8613    0.0000 C   0  0  0  0  0  0  0  0  0  0  0  0
   15.2182   -3.3117    0.0000 O   0  0  0  0  0  0  0  0  0  0  0  0
   17.2807   -4.9148    0.0000 C   0  0  0  0  0  0  0  0  0  0  0  0
   17.9945   -5.3283    0.0000 C   0  0  0  0  0  0  0  0  0  0  0  0
   17.9933   -6.1533    0.0000 C   0  0  0  0  0  0  0  0  0  0  0  0
   18.7074   -6.5669    0.0000 C   0  0  0  0  0  0  0  0  0  0  0  0
  4  5  2  0  0  0  0
  5  1  1  0  0  0  0
  1  2  2  0  0  0  0
  4  6  1  0  0  0  0
  6  7  2  0  0  0  0
  2  3  1  0  0  0  0
  2  8  1  0  0  0  0
  3  4  1  0  0  0  0
  8  9  1  0  0  0  0
  3 10  1  0  0  0  0
 10 11  1  0  0  0  0
 11 12  1  0  0  0  0
 12 13  1  0  0  0  0
M  END
> <ID>
CHEBI:59970

> <NAME>
1-butylpyrraline

> <DEFINITION>
An N-substituted pyrraline that is pyrraline in which the hydrogen attached to the pyrrole nitrogen has been replaced by a butyl group.

> <STAR>
3

> <SYNONYM>
N-butylpyrraline; N-butyl-2-formyl-5-hydroxymethyl-pyrrole; butyl pyrraline; 1-Butyl-5-hydroxymethylpyrrol-2-aldehyd; 1-butyl-5-hydroxymethyl-pyrrole-2-carbaldehyde; 1-Butyl-5-(hydroxymethyl)pyrrol-2-aldehyd

> <IUPAC_NAME>
1-butyl-5-(hydroxymethyl)-1H-pyrrole-2-carbaldehyde

> <FORMULA>
C10H15NO2

> <MASS>
181.23160

> <MONOISOTOPIC_MASS>
181.11028

> <CHARGE>
0

> <SMILES>
CCCCn1c(CO)ccc1C=O

> <INCHI>
InChI=1S/C10H15NO2/c1-2-3-6-11-9(7-12)4-5-10(11)8-13/h4-5,7,13H,2-3,6,8H2,1H3

> <INCHIKEY>
FNDGDKSOMNMMLY-UHFFFAOYSA-N

> <BEILSTEIN_REGISTRY_NUMBER>
1527772

> <REAXYS_REGISTRY_NUMBER>
1527772

> <PUBMED_CITATION>
11982429; 12848520; 1556177; 26176657; 2917974

$$$$

Marvin  08041017042D          

 12 12  0  0  0  0            999 V2000
    9.6503   -4.3770    0.0000 C   0  0  0  0  0  0  0  0  0  0  0  0
    9.3969   -5.1619    0.0000 C   0  0  0  0  0  0  0  0  0  0  0  0
   10.0610   -5.6443    0.0000 N   0  0  0  0  0  0  0  0  0  0  0  0
   10.7292   -5.1619    0.0000 C   0  0  0  0  0  0  0  0  0  0  0  0
   10.4754   -4.3770    0.0000 C   0  0  0  0  0  0  0  0  0  0  0  0
   11.5143   -5.4156    0.0000 C   0  0  0  0  0  0  0  0  0  0  0  0
   11.6851   -6.2229    0.0000 O   0  0  0  0  0  0  0  0  0  0  0  0
    8.6117   -5.4157    0.0000 C   0  0  0  0  0  0  0  0  0  0  0  0
    7.9973   -4.8661    0.0000 O   0  0  0  0  0  0  0  0  0  0  0  0
   10.0599   -6.4692    0.0000 C   0  0  0  0  0  0  0  0  0  0  0  0
   10.7737   -6.8828    0.0000 C   0  0  0  0  0  0  0  0  0  0  0  0
   10.7725   -7.7078    0.0000 C   0  0  0  0  0  0  0  0  0  0  0  0
  4  5  2  0  0  0  0
  5  1  1  0  0  0  0
  1  2  2  0  0  0  0
  4  6  1  0  0  0  0
  6  7  2  0  0  0  0
  2  3  1  0  0  0  0
  2  8  1  0  0  0  0
  3  4  1  0  0  0  0
  8  9  1  0  0  0  0
  3 10  1  0  0  0  0
 10 11  1  0  0  0  0
 11 12  1  0  0  0  0
M  END
> <ID>
CHEBI:59972

> <NAME>
1-propylpyrraline

> <DEFINITION>
An N-substituted pyrraline that is pyrraline in which the hydrogen attached to the pyrrole nitrogen has been replaced by a propyl group.

> <STAR>
3

> <SYNONYM>
propyl pyrraline; N-propylpyrraline; 5-(hydroxymethyl)-1-propylpyrrole-2-carbaldehyde

> <IUPAC_NAME>
5-(hydroxymethyl)-1-propyl-1H-pyrrole-2-carbaldehyde

> <FORMULA>
C9H13NO2

> <MASS>
167.20500

> <MONOISOTOPIC_MASS>
167.09463

> <CHARGE>
0

> <SMILES>
CCCn1c(CO)ccc1C=O

> <INCHI>
InChI=1S/C9H13NO2/c1-2-5-10-8(6-11)3-4-9(10)7-12/h3-4,6,12H,2,5,7H2,1H3

> <INCHIKEY>
DPZNMIQXNXMOMU-UHFFFAOYSA-N

> <BEILSTEIN_REGISTRY_NUMBER>
7020681

> <REAXYS_REGISTRY_NUMBER>
7020681

> <PUBMED_CITATION>
1556177; 26176657; 2917974

$$$$

Marvin  08051010062D          

 14 14  0  0  0  0            999 V2000
   16.6852   -2.3905    0.0000 C   0  0  0  0  0  0  0  0  0  0  0  0
   16.4318   -3.1753    0.0000 C   0  0  0  0  0  0  0  0  0  0  0  0
   17.0959   -3.6577    0.0000 N   0  0  0  0  0  0  0  0  0  0  0  0
   17.7641   -3.1753    0.0000 C   0  0  0  0  0  0  0  0  0  0  0  0
   17.5103   -2.3905    0.0000 C   0  0  0  0  0  0  0  0  0  0  0  0
   18.5492   -3.4290    0.0000 C   0  0  0  0  0  0  0  0  0  0  0  0
   18.7200   -4.2363    0.0000 O   0  0  0  0  0  0  0  0  0  0  0  0
   15.6466   -3.4291    0.0000 C   0  0  0  0  0  0  0  0  0  0  0  0
   15.0322   -2.8796    0.0000 O   0  0  0  0  0  0  0  0  0  0  0  0
   17.0948   -4.4827    0.0000 C   0  0  0  0  0  0  0  0  0  0  0  0
   16.3798   -4.8943    0.0000 C   0  0  0  0  0  0  0  0  0  0  0  0
   16.3788   -5.7193    0.0000 C   0  0  0  0  0  0  0  0  0  0  0  0
   15.6659   -4.4809    0.0000 C   0  0  0  0  0  0  0  0  0  0  0  0
   15.6654   -5.3068    0.0000 C   0  0  0  0  0  0  0  0  0  0  0  0
  4  5  2  0  0  0  0
  5  1  1  0  0  0  0
  1  2  2  0  0  0  0
  4  6  1  0  0  0  0
  6  7  2  0  0  0  0
  2  3  1  0  0  0  0
  2  8  1  0  0  0  0
  3  4  1  0  0  0  0
  8  9  1  0  0  0  0
  3 10  1  0  0  0  0
 10 11  1  0  0  0  0
 11 12  1  0  0  0  0
 11 13  1  0  0  0  0
 11 14  1  0  0  0  0
M  END
> <ID>
CHEBI:59975

> <NAME>
1-neopentylpyrraline

> <DEFINITION>
An N-substituted pyrraline that is pyrraline in which the hydrogen attached to the pyrrole nitrogen has been replaced by a neopentyl (2,2-dimethylpropyl) group.

> <STAR>
3

> <SYNONYM>
5-hydroxymethyl-1-neopentylpyrrole-2-carbaldehyde

> <IUPAC_NAME>
1-(2,2-dimethylpropyl)-5-(hydroxymethyl)-1H-pyrrole-2-carbaldehyde

> <FORMULA>
C11H17NO2

> <MASS>
195.25820

> <MONOISOTOPIC_MASS>
195.12593

> <CHARGE>
0

> <SMILES>
CC(C)(C)Cn1c(CO)ccc1C=O

> <INCHI>
InChI=1S/C11H17NO2/c1-11(2,3)8-12-9(6-13)4-5-10(12)7-14/h4-6,14H,7-8H2,1-3H3

> <INCHIKEY>
WGSAYGPQJMOJFV-UHFFFAOYSA-N

> <BEILSTEIN_REGISTRY_NUMBER>
5928260

> <REAXYS_REGISTRY_NUMBER>
5928260

> <PUBMED_CITATION>
1556177; 26176657; 2917974

$$$$

Marvin  08051010522D          

 18 18  0  0  0  0            999 V2000
    6.8333   -3.4626    0.0000 C   0  0  0  0  0  0  0  0  0  0  0  0
    6.5799   -4.2474    0.0000 C   0  0  0  0  0  0  0  0  0  0  0  0
    7.2440   -4.7298    0.0000 N   0  0  0  0  0  0  0  0  0  0  0  0
    7.9122   -4.2474    0.0000 C   0  0  0  0  0  0  0  0  0  0  0  0
    7.6584   -3.4626    0.0000 C   0  0  0  0  0  0  0  0  0  0  0  0
    8.6973   -4.5011    0.0000 C   0  0  0  0  0  0  0  0  0  0  0  0
    8.8681   -5.3084    0.0000 O   0  0  0  0  0  0  0  0  0  0  0  0
    7.2429   -5.5548    0.0000 C   0  0  0  0  0  0  0  0  0  0  0  0
    6.5279   -5.9664    0.0000 C   0  0  0  0  0  0  0  0  0  0  0  0
    6.5269   -6.7914    0.0000 C   0  0  0  0  0  0  0  0  0  0  0  0
    5.8140   -5.5531    0.0000 C   0  0  0  0  0  0  0  0  0  0  0  0
    5.6786   -6.3657    0.0000 C   0  0  0  0  0  0  0  0  0  0  0  0
    8.0709   -2.7481    0.0000 C   0  0  0  0  0  0  0  0  0  0  0  0
    8.8959   -2.7481    0.0000 O   0  0  0  0  0  0  0  0  0  0  0  0
    7.6584   -2.0336    0.0000 C   0  0  0  0  0  0  0  0  0  0  0  0
    6.8334   -2.0336    0.0000 O   0  0  0  0  0  0  0  0  0  0  0  0
    8.0709   -1.3191    0.0000 C   0  0  0  0  0  0  0  0  0  0  0  0
    8.8959   -1.3191    0.0000 O   0  0  0  0  0  0  0  0  0  0  0  0
  4  5  2  0  0  0  0
  5  1  1  0  0  0  0
  1  2  2  0  0  0  0
  4  6  1  0  0  0  0
  6  7  2  0  0  0  0
  2  3  1  0  0  0  0
  3  4  1  0  0  0  0
  3  8  1  0  0  0  0
  8  9  1  0  0  0  0
  9 10  1  0  0  0  0
  9 11  1  0  0  0  0
  9 12  1  0  0  0  0
  5 13  1  0  0  0  0
 13 14  1  0  0  0  0
 13 15  1  0  0  0  0
 15 16  1  0  0  0  0
 15 17  1  0  0  0  0
 17 18  1  0  0  0  0
M  END
> <ID>
CHEBI:59977

> <NAME>
neopentyl glycosyl pyrrole

> <DEFINITION>
A pyrrole having neopentyl-, formyl- and 1,2,3-trihydroxypropyl groups at positions 1-, 2- and 3- respectively.

> <STAR>
3

> <IUPAC_NAME>
1-(2,2-dimethylpropyl)-3-(1,2,3-trihydroxypropyl)-1H-pyrrole-2-carbaldehyde

> <FORMULA>
C13H21NO4

> <MASS>
255.31010

> <MONOISOTOPIC_MASS>
255.14706

> <CHARGE>
0

> <SMILES>
CC(C)(C)Cn1ccc(C(O)C(O)CO)c1C=O

> <INCHI>
InChI=1S/C13H21NO4/c1-13(2,3)8-14-5-4-9(10(14)6-15)12(18)11(17)7-16/h4-6,11-12,16-18H,7-8H2,1-3H3

> <INCHIKEY>
SCHOZSZMRGHVKQ-UHFFFAOYSA-N

> <PUBMED_CITATION>
1556177; 2917974

$$$$

Marvin  08051011312D          

  8  8  0  0  0  0            999 V2000
    6.8347   -3.4633    0.0000 C   0  0  0  0  0  0  0  0  0  0  0  0
    6.5812   -4.2483    0.0000 C   0  0  0  0  0  0  0  0  0  0  0  0
    7.2455   -4.7308    0.0000 N   0  0  0  0  0  0  0  0  0  0  0  0
    7.9138   -4.2483    0.0000 C   0  0  0  0  0  0  0  0  0  0  0  0
    7.6599   -3.4633    0.0000 C   0  0  0  0  0  0  0  0  0  0  0  0
    8.6991   -4.5020    0.0000 C   0  0  0  0  0  0  0  0  0  0  0  0
    8.8699   -5.3095    0.0000 O   0  0  0  0  0  0  0  0  0  0  0  0
    9.3120   -3.9498    0.0000 H   0  0  0  0  0  0  0  0  0  0  0  0
  4  5  2  0  0  0  0
  5  1  1  0  0  0  0
  1  2  2  0  0  0  0
  4  6  1  0  0  0  0
  6  7  2  0  0  0  0
  2  3  1  0  0  0  0
  3  4  1  0  0  0  0
  6  8  1  0  0  0  0
M  END
> <ID>
CHEBI:59978

> <NAME>
pyrrole-2-carboxaldehyde

> <DEFINITION>
A pyrrole carrying a formyl substituent at the 2-position.

> <STAR>
3

> <SYNONYM>
pyrrole-2-carbaldehyde; Pyrrole-2-aldehyde; Pyrrol-2-carboxaldehyde; alpha-Pyrrolaldehyde; 2-Pyrrolylcarboxaldehyde; 2-Pyrrolecarboxaldehyde; 2-Pyrrolecarbaldehyde; 2-pyrrole aldehyde; 2-Pyrrolcarbaldehyde; 2-Pyrrolaldehyde; 2-Formylpyrrole; 2-carboxaldehyde-1H-pyrrole; 1H-pyrrole-2-carboxyaldehyde; 1H-Pyrrole-2-carboxaldehyde; 1-Pyrrole-2-carboxaldehyde; 1(H)-pyrrole carboxaldehyde

> <IUPAC_NAME>
1H-pyrrole-2-carbaldehyde

> <FORMULA>
C5H5NO

> <MASS>
95.09930

> <MONOISOTOPIC_MASS>
95.03711

> <CHARGE>
0

> <SMILES>
[H]C(=O)c1ccc[nH]1

> <INCHI>
InChI=1S/C5H5NO/c7-4-5-2-1-3-6-5/h1-4,6H

> <INCHIKEY>
ZSKGQVFRTSEPJT-UHFFFAOYSA-N

> <BEILSTEIN_REGISTRY_NUMBER>
105745

> <CAS_REGISTRY_NUMBER>
1003-29-8

> <GMELIN_REGISTRY_NUMBER>
49889

> <REAXYS_REGISTRY_NUMBER>
105745

> <CHEMIDPLUS>
1003-29-8

> <NIST_CHEMISTRY_WEBBOOK>
1003-29-8

> <PUBMED_CITATION>
1556177; 17430038; 28575820; 2917974

$$$$

Marvin  08051014062D          

 12 12  0  0  0  0            999 V2000
   11.2385   -3.5435    0.0000 C   0  0  0  0  0  0  0  0  0  0  0  0
   10.9851   -4.3284    0.0000 C   0  0  0  0  0  0  0  0  0  0  0  0
   11.6492   -4.8108    0.0000 N   0  0  0  0  0  0  0  0  0  0  0  0
   12.3174   -4.3284    0.0000 C   0  0  0  0  0  0  0  0  0  0  0  0
   12.0636   -3.5435    0.0000 C   0  0  0  0  0  0  0  0  0  0  0  0
   13.1025   -4.5821    0.0000 C   0  0  0  0  0  0  0  0  0  0  0  0
   13.2733   -5.3895    0.0000 O   0  0  0  0  0  0  0  0  0  0  0  0
   11.6481   -5.6358    0.0000 C   0  0  0  0  0  0  0  0  0  0  0  0
   12.3619   -6.0494    0.0000 C   0  0  0  0  0  0  0  0  0  0  0  0
   12.3607   -6.8744    0.0000 C   0  0  0  0  0  0  0  0  0  0  0  0
   13.7154   -4.0299    0.0000 C   0  0  0  0  0  0  0  0  0  0  0  0
   14.5001   -4.2846    0.0000 O   0  0  0  0  0  0  0  0  0  0  0  0
  4  5  2  0  0  0  0
  5  1  1  0  0  0  0
  1  2  2  0  0  0  0
  4  6  1  0  0  0  0
  6  7  2  0  0  0  0
  2  3  1  0  0  0  0
  3  4  1  0  0  0  0
  3  8  1  0  0  0  0
  8  9  1  0  0  0  0
  9 10  1  0  0  0  0
  6 11  1  0  0  0  0
 11 12  1  0  0  0  0
M  END
> <ID>
CHEBI:59980

> <NAME>
1-propyl-2-hydroxyacetylpyrrole

> <DEFINITION>
A pyrrole carrying propyl and hydroxyacetyl groups at the 1- and 2-positions respectively.

> <STAR>
3

> <SYNONYM>
propyl hydroxyacetyl pyrrole

> <IUPAC_NAME>
2-hydroxy-1-(1-propyl-1H-pyrrol-2-yl)ethanone

> <FORMULA>
C9H13NO2

> <MASS>
167.20500

> <MONOISOTOPIC_MASS>
167.09463

> <CHARGE>
0

> <SMILES>
CCCn1cccc1C(=O)CO

> <INCHI>
InChI=1S/C9H13NO2/c1-2-5-10-6-3-4-8(10)9(12)7-11/h3-4,6,11H,2,5,7H2,1H3

> <INCHIKEY>
NSQXHPJXBVVTFZ-UHFFFAOYSA-N

> <PUBMED_CITATION>
2917974

$$$$

Marvin  08051014392D          

  8  8  0  0  0  0            999 V2000
   11.2386   -3.5436    0.0000 C   0  0  0  0  0  0  0  0  0  0  0  0
   10.9852   -4.3285    0.0000 C   0  0  0  0  0  0  0  0  0  0  0  0
   11.6493   -4.8109    0.0000 N   0  0  0  0  0  0  0  0  0  0  0  0
   12.3175   -4.3285    0.0000 C   0  0  0  0  0  0  0  0  0  0  0  0
   12.0637   -3.5436    0.0000 C   0  0  0  0  0  0  0  0  0  0  0  0
   13.1026   -4.5822    0.0000 C   0  0  0  0  0  0  0  0  0  0  0  0
   13.2735   -5.3895    0.0000 O   0  0  0  0  0  0  0  0  0  0  0  0
   13.7156   -4.0300    0.0000 C   0  0  0  0  0  0  0  0  0  0  0  0
  4  5  2  0  0  0  0
  5  1  1  0  0  0  0
  1  2  2  0  0  0  0
  4  6  1  0  0  0  0
  6  7  2  0  0  0  0
  2  3  1  0  0  0  0
  3  4  1  0  0  0  0
  6  8  1  0  0  0  0
M  END
> <ID>
CHEBI:59981

> <NAME>
2-acetylpyrrole

> <DEFINITION>
A pyrrole carrying an acetyl substituent at the 2-position.

> <STAR>
3

> <SYNONYM>
Pyrrole-alpha-methyl ketone; Methyl pyrrol-2-yl ketone; 2-Pyrrolylethanone; 2-Pyrrolyl methyl ketone; 2-Acetyl-1H-pyrrole; 1-(2-Pyrrolyl)-1-ethanone; 1-(1H-pyrrole-2-yl)-ethanone; 1-(1H-Pyrrol-2-yl)ethanone; 1-(1H-Pyrrol-2-yl)ethan-1-one; 1-(1H-pyrrol-2-yl)1-ethanone

> <FORMULA>
C6H7NO

> <MASS>
109.12590

> <MONOISOTOPIC_MASS>
109.05276

> <CHARGE>
0

> <SMILES>
CC(=O)c1ccc[nH]1

> <INCHI>
InChI=1S/C6H7NO/c1-5(8)6-3-2-4-7-6/h2-4,7H,1H3

> <INCHIKEY>
IGJQUJNPMOYEJY-UHFFFAOYSA-N

> <BEILSTEIN_REGISTRY_NUMBER>
1882

> <CAS_REGISTRY_NUMBER>
1072-83-9

> <GMELIN_REGISTRY_NUMBER>
50167

> <REAXYS_REGISTRY_NUMBER>
1882

> <CHEMIDPLUS>
1072-83-9

> <NIST_CHEMISTRY_WEBBOOK>
1072-83-9

> <PUBMED_CITATION>
23933556; 2917974; 3542764

$$$$

Marvin  08051015232D          

  9  9  0  0  0  0            999 V2000
   11.2386   -3.5436    0.0000 C   0  0  0  0  0  0  0  0  0  0  0  0
   10.9852   -4.3285    0.0000 C   0  0  0  0  0  0  0  0  0  0  0  0
   11.6493   -4.8109    0.0000 N   0  0  0  0  0  0  0  0  0  0  0  0
   12.3175   -4.3285    0.0000 C   0  0  0  0  0  0  0  0  0  0  0  0
   12.0637   -3.5436    0.0000 C   0  0  0  0  0  0  0  0  0  0  0  0
   13.1026   -4.5822    0.0000 C   0  0  0  0  0  0  0  0  0  0  0  0
   13.2735   -5.3895    0.0000 O   0  0  0  0  0  0  0  0  0  0  0  0
   13.7156   -4.0300    0.0000 C   0  0  0  0  0  0  0  0  0  0  0  0
   11.6481   -5.6359    0.0000 C   0  0  0  0  0  0  0  0  0  0  0  0
  4  5  2  0  0  0  0
  5  1  1  0  0  0  0
  1  2  2  0  0  0  0
  4  6  1  0  0  0  0
  6  7  2  0  0  0  0
  2  3  1  0  0  0  0
  3  4  1  0  0  0  0
  6  8  1  0  0  0  0
  3  9  1  0  0  0  0
M  END
> <ID>
CHEBI:59982

> <NAME>
1-methyl-2-acetylpyrrole

> <DEFINITION>
A pyrrole carrying methyl and acetyl substituents at the 1- and 2-positions respectively.

> <STAR>
3

> <SYNONYM>
N-Methyl-2-acetylpyrrole; Methyl 1-methylpyrrol-2-yl ketone; 2-Acetyl-N-methylpyrrole; 2-Acetyl-1-methylpyrrole; 1-(1-Methylpyrrol-2-yl)ethanone; 1-(1-Methyl-1H-pyrrol-2-yl)ethanone

> <FORMULA>
C7H9NO

> <MASS>
123.15250

> <MONOISOTOPIC_MASS>
123.06841

> <CHARGE>
0

> <SMILES>
CC(=O)c1cccn1C

> <INCHI>
InChI=1S/C7H9NO/c1-6(9)7-4-3-5-8(7)2/h3-5H,1-2H3

> <INCHIKEY>
NZFLWVDXYUGFAV-UHFFFAOYSA-N

> <BEILSTEIN_REGISTRY_NUMBER>
111887

> <CAS_REGISTRY_NUMBER>
932-16-1

> <GMELIN_REGISTRY_NUMBER>
49938

> <REAXYS_REGISTRY_NUMBER>
111887

> <CHEMIDPLUS>
932-16-1

> <NIST_CHEMISTRY_WEBBOOK>
932-16-1

> <PUBMED_CITATION>
2917974

$$$$

Marvin  08051016262D          

  9  9  0  0  0  0            999 V2000
   11.2381   -3.5434    0.0000 C   0  0  0  0  0  0  0  0  0  0  0  0
   10.9847   -4.3283    0.0000 C   0  0  0  0  0  0  0  0  0  0  0  0
   11.6488   -4.8107    0.0000 O   0  0  0  0  0  0  0  0  0  0  0  0
   12.3169   -4.3283    0.0000 C   0  0  0  0  0  0  0  0  0  0  0  0
   12.0632   -3.5434    0.0000 C   0  0  0  0  0  0  0  0  0  0  0  0
   13.1020   -4.5820    0.0000 C   0  0  0  0  0  0  0  0  0  0  0  0
   13.2729   -5.3893    0.0000 O   0  0  0  0  0  0  0  0  0  0  0  0
   10.2003   -4.5840    0.0000 C   0  0  0  0  0  0  0  0  0  0  0  0
    9.5867   -4.0326    0.0000 O   0  0  0  0  0  0  0  0  0  0  0  0
  4  5  2  0  0  0  0
  5  1  1  0  0  0  0
  1  2  2  0  0  0  0
  4  6  1  0  0  0  0
  6  7  1  0  0  0  0
  2  3  1  0  0  0  0
  3  4  1  0  0  0  0
  2  8  1  0  0  0  0
  8  9  1  0  0  0  0
M  END
> <ID>
CHEBI:59984

> <NAME>
2,5-furandimethanol

> <DEFINITION>
A furan carrying two hydroxymethyl substituents at the 2- and 5-positions.

> <STAR>
3

> <SYNONYM>
Furan-2,5-diyldimethanol; 2,5-furanylmethanol; 2,5-Bis(hydroxymethyl)furan

> <IUPAC_NAME>
(furan-2,5-diyl)dimethanol

> <FORMULA>
C6H8O3

> <MASS>
128.12590

> <MONOISOTOPIC_MASS>
128.04734

> <CHARGE>
0

> <SMILES>
OCc1ccc(CO)o1

> <INCHI>
InChI=1S/C6H8O3/c7-3-5-1-2-6(4-8)9-5/h1-2,7-8H,3-4H2

> <INCHIKEY>
DSLRVRBSNLHVBH-UHFFFAOYSA-N

> <BEILSTEIN_REGISTRY_NUMBER>
114239

> <CAS_REGISTRY_NUMBER>
1883-75-6

> <GMELIN_REGISTRY_NUMBER>
1042677

> <REAXYS_REGISTRY_NUMBER>
114239

> <CHEMIDPLUS>
1883-75-6

> <PUBMED_CITATION>
24835301; 24924637; 27966286

$$$$

Marvin  08061011052D          

 24 23  0  0  1  0            999 V2000
    5.5143   -5.0840    0.0000 O   0  0  0  0  0  0  0  0  0  0  0  0
    6.2286   -4.6715    0.0000 C   0  0  0  0  0  0  0  0  0  0  0  0
    9.8010   -5.0840    0.0000 C   0  0  0  0  0  0  0  0  0  0  0  0
   10.5154   -4.6715    0.0000 N   0  0  0  0  0  0  0  0  0  0  0  0
   11.2298   -5.0840    0.0000 C   0  0  0  0  0  0  0  0  0  0  0  0
    9.0865   -4.6715    0.0000 C   0  0  0  0  0  0  0  0  0  0  0  0
    9.0865   -3.8466    0.0000 O   0  0  0  0  0  0  0  0  0  0  0  0
    8.3720   -5.0840    0.0000 C   0  0  2  0  0  0  0  0  0  0  0  0
    7.6576   -4.6715    0.0000 C   0  0  1  0  0  0  0  0  0  0  0  0
    6.9431   -5.0840    0.0000 C   0  0  2  0  0  0  0  0  0  0  0  0
    6.9431   -5.9090    0.0000 O   0  0  0  0  0  0  0  0  0  0  0  0
    7.6576   -3.8466    0.0000 O   0  0  0  0  0  0  0  0  0  0  0  0
    8.3720   -5.9090    0.0000 O   0  0  0  0  0  0  0  0  0  0  0  0
   11.9443   -4.6715    0.0000 C   0  0  0  0  0  0  0  0  0  0  0  0
   12.6588   -5.0840    0.0000 C   0  0  0  0  0  0  0  0  0  0  0  0
   13.3732   -4.6715    0.0000 C   0  0  0  0  0  0  0  0  0  0  0  0
   14.8021   -3.8466    0.0000 O   0  0  0  0  0  0  0  0  0  0  0  0
   14.8021   -4.6715    0.0000 C   0  0  0  0  0  0  0  0  0  0  0  0
   15.5167   -5.0840    0.0000 O   0  0  0  0  0  0  0  0  0  0  0  0
   14.0877   -5.0840    0.0000 C   0  0  1  0  0  0  0  0  0  0  0  0
   14.0877   -5.9090    0.0000 N   0  0  0  0  0  0  0  0  0  0  0  0
   13.3732   -6.3215    0.0000 C   0  0  0  0  0  0  0  0  0  0  0  0
   12.6587   -5.9090    0.0000 H   0  0  0  0  0  0  0  0  0  0  0  0
   13.3732   -7.1465    0.0000 O   0  0  0  0  0  0  0  0  0  0  0  0
  1  2  1  0  0  0  0
  2 10  1  0  0  0  0
 10  9  1  0  0  0  0
  9  8  1  0  0  0  0
  8  6  1  0  0  0  0
  6  3  1  0  0  0  0
  3  4  1  0  0  0  0
  4  5  1  0  0  0  0
  5 14  1  0  0  0  0
  6  7  2  0  0  0  0
  8 13  1  1  0  0  0
  9 12  1  1  0  0  0
 10 11  1  6  0  0  0
 14 15  1  0  0  0  0
 15 16  1  0  0  0  0
 16 20  1  0  0  0  0
 20 18  1  0  0  0  0
 18 17  2  0  0  0  0
 18 19  1  0  0  0  0
 20 21  1  1  0  0  0
 21 22  1  0  0  0  0
 22 23  1  0  0  0  0
 22 24  2  0  0  0  0
M  END
> <ID>
CHEBI:59986

> <NAME>
N(alpha)-formyl-N(epsilon)-fructosyllysine

> <DEFINITION>
A glyco-amino acid consisting of a D-fructosyl residue attached to the ε-amino group of Nα-formyl-L-lysine.

> <STAR>
3

> <SYNONYM>
N(alpha)-formyl-N(epsilon)-fructosyl-L-lysine; N(alpha)-formyl-N(epsilon)-fructosyl-L-lysine; N(alpha)-Formyl-N(epsilon)-fructoselysine; alpha-N-Formyl-(epsilon-N-1-deoxy-1-fructosyl)-L-lysine; alpha-formyl-epsilon-1-deoxyfructosyl-L-lysine

> <IUPAC_NAME>
N(6)-(1-deoxy-D-fructos-1-yl)-N(2)-formyl-L-lysine

> <FORMULA>
C13H24N2O8

> <MASS>
336.33830

> <MONOISOTOPIC_MASS>
336.15327

> <CHARGE>
0

> <SMILES>
[H]C(=O)N[C@@H](CCCCNCC(=O)[C@@H](O)[C@H](O)[C@H](O)CO)C(O)=O

> <INCHI>
InChI=1S/C13H24N2O8/c16-6-10(19)12(21)11(20)9(18)5-14-4-2-1-3-8(13(22)23)15-7-17/h7-8,10-12,14,16,19-21H,1-6H2,(H,15,17)(H,22,23)/t8-,10+,11+,12+/m0/s1

> <INCHIKEY>
VUDOMKMNAWXLBB-JTLRNRKASA-N

> <BEILSTEIN_REGISTRY_NUMBER>
2396807

> <CAS_REGISTRY_NUMBER>
23931-59-1

> <CHEMIDPLUS>
23931-59-1

> <PUBMED_CITATION>
2917974

$$$$

Marvin  08061011462D          

 21 22  0  0  1  0            999 V2000
   11.1343   -5.7627    0.0000 C   0  0  1  0  0  0  0  0  0  0  0  0
   11.1343   -6.5877    0.0000 C   0  0  2  0  0  0  0  0  0  0  0  0
   10.4199   -5.3502    0.0000 O   0  0  0  0  0  0  0  0  0  0  0  0
   10.4199   -7.0002    0.0000 C   0  0  2  0  0  0  0  0  0  0  0  0
    9.7055   -5.7627    0.0000 C   0  0  1  0  0  0  0  0  0  0  0  0
    9.7055   -6.5877    0.0000 C   0  0  1  0  0  0  0  0  0  0  0  0
   11.8487   -5.3502    0.0000 O   0  0  0  0  0  0  0  0  0  0  0  0
   11.8487   -7.0002    0.0000 O   0  0  0  0  0  0  0  0  0  0  0  0
   10.4199   -7.8252    0.0000 O   0  0  0  0  0  0  0  0  0  0  0  0
    8.9909   -7.0002    0.0000 O   0  0  0  0  0  0  0  0  0  0  0  0
    8.9909   -5.3502    0.0000 C   0  0  0  0  0  0  0  0  0  0  0  0
    8.2765   -5.7627    0.0000 O   0  0  0  0  0  0  0  0  0  0  0  0
    9.7054   -8.2377    0.0000 C   0  0  2  0  0  0  0  0  0  0  0  0
    9.7054   -9.0627    0.0000 C   0  0  2  0  0  0  0  0  0  0  0  0
    8.9909   -7.8252    0.0000 O   0  0  0  0  0  0  0  0  0  0  0  0
    8.9909   -9.4751    0.0000 C   0  0  0  0  0  0  0  0  0  0  0  0
    8.2764   -8.2377    0.0000 C   0  0  1  0  0  0  0  0  0  0  0  0
    8.2764   -9.0627    0.0000 C   0  0  1  0  0  0  0  0  0  0  0  0
   10.4199   -9.4751    0.0000 O   0  0  0  0  0  0  0  0  0  0  0  0
    7.5619   -9.4751    0.0000 O   0  0  0  0  0  0  0  0  0  0  0  0
    7.5619   -7.8252    0.0000 C   0  0  0  0  0  0  0  0  0  0  0  0
  1  2  1  0  0  0  0
  1  3  1  0  0  0  0
  2  4  1  0  0  0  0
  3  5  1  0  0  0  0
  4  6  1  0  0  0  0
  5  6  1  0  0  0  0
  1  7  1  1  0  0  0
  2  8  1  1  0  0  0
  4  9  1  1  0  0  0
  6 10  1  6  0  0  0
  5 11  1  1  0  0  0
 12 11  1  0  0  0  0
 13 14  1  0  0  0  0
 13 15  1  0  0  0  0
 14 16  1  0  0  0  0
 15 17  1  0  0  0  0
 16 18  1  0  0  0  0
 17 18  1  0  0  0  0
 13  9  1  6  0  0  0
 14 19  1  1  0  0  0
 18 20  1  6  0  0  0
 17 21  1  1  0  0  0
M  END
> <ID>
CHEBI:59987

> <NAME>
alpha-tyvelopyranosyl-(1->3)-beta-D-mannopyranose

> <DEFINITION>
A glycosylmannose consisting of β-D-mannopyranose having a tyvelopyranosyl residue attached via an α-(1→3)-linkage

> <STAR>
3

> <SYNONYM>
Tyvalpha1-2Manbeta; alpha-Tyvp-(1->3)-beta-D-Manp; alpha-Tyv-(1->3)-beta-D-Man; alpha-D-tyvelosyl-(1->3)-beta-D-mannose; alpha-D-tyvelopyranosyl-(1->3)-beta-D-mannopyranose; 3-O-alpha-tyvelopyranosyl-beta-D-mannopyranose; 3-O-(3,6-dideoxy-alpha-D-mannopyranosyl)-beta-D-mannopyranose; 3-O-(3,6-dideoxy-alpha-D-arabino-hexopyranosyl)-beta-D-mannopyranose

> <IUPAC_NAME>
3,6-dideoxy-alpha-D-arabino-hexopyranosyl-(1->3)-beta-D-mannopyranose

> <FORMULA>
C12H22O9

> <MASS>
310.29770

> <MONOISOTOPIC_MASS>
310.12638

> <CHARGE>
0

> <SMILES>
C[C@H]1O[C@H](O[C@@H]2[C@H](O)[C@H](O)O[C@H](CO)[C@H]2O)[C@@H](O)C[C@@H]1O

> <INCHI>
InChI=1S/C12H22O9/c1-4-5(14)2-6(15)12(19-4)21-10-8(16)7(3-13)20-11(18)9(10)17/h4-18H,2-3H2,1H3/t4-,5+,6+,7-,8-,9+,10+,11-,12-/m1/s1

> <INCHIKEY>
QVRWXXYMZHICKL-SGSFWAJCSA-N

> <PUBMED_CITATION>
84796

$$$$

Marvin  08061012002D          

 10 10  0  0  1  0            999 V2000
   10.4198   -7.8252    0.0000 O   0  0  0  0  0  0  0  0  0  0  0  0
    9.7053   -8.2377    0.0000 C   0  0  2  0  0  0  0  0  0  0  0  0
    9.7053   -9.0627    0.0000 C   0  0  2  0  0  0  0  0  0  0  0  0
    8.9908   -7.8252    0.0000 O   0  0  0  0  0  0  0  0  0  0  0  0
    8.9908   -9.4751    0.0000 C   0  0  0  0  0  0  0  0  0  0  0  0
    8.2764   -8.2377    0.0000 C   0  0  1  0  0  0  0  0  0  0  0  0
    8.2764   -9.0627    0.0000 C   0  0  1  0  0  0  0  0  0  0  0  0
   10.4198   -9.4751    0.0000 O   0  0  0  0  0  0  0  0  0  0  0  0
    7.5619   -9.4751    0.0000 O   0  0  0  0  0  0  0  0  0  0  0  0
    7.5619   -7.8252    0.0000 C   0  0  0  0  0  0  0  0  0  0  0  0
  2  3  1  0  0  0  0
  2  4  1  0  0  0  0
  3  5  1  0  0  0  0
  4  6  1  0  0  0  0
  5  7  1  0  0  0  0
  6  7  1  0  0  0  0
  2  1  1  6  0  0  0
  3  8  1  1  0  0  0
  7  9  1  6  0  0  0
  6 10  1  1  0  0  0
M  END
> <ID>
CHEBI:59988

> <NAME>
alpha-tyvelopyranose

> <DEFINITION>
The α-anomer of the pyranose form of tyvelose.

> <STAR>
3

> <SYNONYM>
Tyvelose; alpha-Tyv

> <IUPAC_NAME>
3,6-dideoxy-alpha-D-arabino-hexopyranose

> <FORMULA>
C6H12O4

> <MASS>
148.15710

> <MONOISOTOPIC_MASS>
148.07356

> <CHARGE>
0

> <SMILES>
C[C@H]1O[C@H](O)[C@@H](O)C[C@@H]1O

> <INCHI>
InChI=1S/C6H12O4/c1-3-4(7)2-5(8)6(9)10-3/h3-9H,2H2,1H3/t3-,4+,5+,6+/m1/s1

> <INCHIKEY>
KYPWIZMAJMNPMJ-VANKVMQKSA-N

> <BEILSTEIN_REGISTRY_NUMBER>
6052308

> <REAXYS_REGISTRY_NUMBER>
6052308

> <DRUGBANK_ACCESSION>
DB04028

> <PUBMED_CITATION>
84796

$$$$

Marvin  08061013262D          

 21 22  0  0  1  0            999 V2000
   11.1343   -5.7627    0.0000 C   0  0  2  0  0  0  0  0  0  0  0  0
   11.1343   -6.5877    0.0000 C   0  0  2  0  0  0  0  0  0  0  0  0
   10.4199   -5.3502    0.0000 O   0  0  0  0  0  0  0  0  0  0  0  0
   10.4199   -7.0002    0.0000 C   0  0  2  0  0  0  0  0  0  0  0  0
    9.7055   -5.7627    0.0000 C   0  0  1  0  0  0  0  0  0  0  0  0
    9.7055   -6.5877    0.0000 C   0  0  1  0  0  0  0  0  0  0  0  0
   11.8487   -5.3502    0.0000 O   0  0  0  0  0  0  0  0  0  0  0  0
   11.8487   -7.0002    0.0000 O   0  0  0  0  0  0  0  0  0  0  0  0
   10.4199   -7.8252    0.0000 O   0  0  0  0  0  0  0  0  0  0  0  0
    8.9909   -7.0002    0.0000 O   0  0  0  0  0  0  0  0  0  0  0  0
    8.9909   -5.3502    0.0000 C   0  0  0  0  0  0  0  0  0  0  0  0
    8.2765   -5.7627    0.0000 O   0  0  0  0  0  0  0  0  0  0  0  0
    9.7054   -8.2377    0.0000 C   0  0  2  0  0  0  0  0  0  0  0  0
    9.7054   -9.0627    0.0000 C   0  0  1  0  0  0  0  0  0  0  0  0
    8.9909   -7.8252    0.0000 O   0  0  0  0  0  0  0  0  0  0  0  0
    8.9909   -9.4751    0.0000 C   0  0  0  0  0  0  0  0  0  0  0  0
    8.2764   -8.2377    0.0000 C   0  0  1  0  0  0  0  0  0  0  0  0
    8.2764   -9.0627    0.0000 C   0  0  1  0  0  0  0  0  0  0  0  0
   10.4199   -9.4751    0.0000 O   0  0  0  0  0  0  0  0  0  0  0  0
    7.5619   -9.4751    0.0000 O   0  0  0  0  0  0  0  0  0  0  0  0
    7.5619   -7.8252    0.0000 C   0  0  0  0  0  0  0  0  0  0  0  0
  1  2  1  0  0  0  0
  1  3  1  0  0  0  0
  2  4  1  0  0  0  0
  3  5  1  0  0  0  0
  4  6  1  0  0  0  0
  5  6  1  0  0  0  0
  1  7  1  6  0  0  0
  2  8  1  1  0  0  0
  4  9  1  1  0  0  0
  6 10  1  6  0  0  0
  5 11  1  1  0  0  0
 12 11  1  0  0  0  0
 13 14  1  0  0  0  0
 13 15  1  0  0  0  0
 14 16  1  0  0  0  0
 15 17  1  0  0  0  0
 16 18  1  0  0  0  0
 17 18  1  0  0  0  0
 13  9  1  6  0  0  0
 14 19  1  6  0  0  0
 18 20  1  6  0  0  0
 17 21  1  1  0  0  0
M  END
> <ID>
CHEBI:59989

> <NAME>
alpha-paratopyranosyl-(1->3)-alpha-D-mannopyranose

> <DEFINITION>
A glycosylmannose consisting of α-D-mannopyranose having a paratopyranosyl residue attached via an α-(1→3)-linkage.

> <STAR>
3

> <SYNONYM>
Paralpha1-3Manalpha; alpha-Parp-(1->3)-alpha-D-Manp; alpha-Par-(1->3)-alpha-D-Man; 3-O-alpha-paratopyranosyl-alpha-D-mannopyranose; 3-O-(3,6-dideoxy-alpha-D-ribo-hexopyranosyl)-alpha-D-mannopyranose

> <IUPAC_NAME>
3,6-dideoxy-alpha-D-ribo-hexopyranosyl-(1->3)-alpha-D-mannopyranose

> <FORMULA>
C12H22O9

> <MASS>
310.29770

> <MONOISOTOPIC_MASS>
310.12638

> <CHARGE>
0

> <SMILES>
C[C@H]1O[C@H](O[C@@H]2[C@H](O)[C@@H](O)O[C@H](CO)[C@H]2O)[C@H](O)C[C@@H]1O

> <INCHI>
InChI=1S/C12H22O9/c1-4-5(14)2-6(15)12(19-4)21-10-8(16)7(3-13)20-11(18)9(10)17/h4-18H,2-3H2,1H3/t4-,5+,6-,7-,8-,9+,10+,11+,12-/m1/s1

> <INCHIKEY>
QVRWXXYMZHICKL-VEYXNZIISA-N

> <PUBMED_CITATION>
17558551; 84796

$$$$

Marvin  08061013442D          

 10 10  0  0  1  0            999 V2000
   17.0398   -8.7994    0.0000 O   0  0  0  0  0  0  0  0  0  0  0  0
   16.3253   -9.2119    0.0000 C   0  0  2  0  0  0  0  0  0  0  0  0
   16.3253  -10.0368    0.0000 C   0  0  1  0  0  0  0  0  0  0  0  0
   15.6109   -8.7994    0.0000 O   0  0  0  0  0  0  0  0  0  0  0  0
   15.6109  -10.4493    0.0000 C   0  0  0  0  0  0  0  0  0  0  0  0
   14.8964   -9.2119    0.0000 C   0  0  1  0  0  0  0  0  0  0  0  0
   14.8964  -10.0368    0.0000 C   0  0  2  0  0  0  0  0  0  0  0  0
   17.0398  -10.4493    0.0000 O   0  0  0  0  0  0  0  0  0  0  0  0
   14.1819  -10.4493    0.0000 O   0  0  0  0  0  0  0  0  0  0  0  0
   14.1819   -8.7994    0.0000 C   0  0  0  0  0  0  0  0  0  0  0  0
  2  3  1  0  0  0  0
  2  4  1  0  0  0  0
  3  5  1  0  0  0  0
  4  6  1  0  0  0  0
  5  7  1  0  0  0  0
  6  7  1  0  0  0  0
  2  1  1  6  0  0  0
  3  8  1  6  0  0  0
  7  9  1  1  0  0  0
  6 10  1  1  0  0  0
M  END
> <ID>
CHEBI:59992

> <NAME>
alpha-abequopyranose

> <DEFINITION>
The α-anomer of the pyranose form of abequose.

> <STAR>
3

> <SYNONYM>
alpha-abequose; alpha-Abe

> <IUPAC_NAME>
3,6-dideoxy-alpha-D-xylo-hexopyranose

> <FORMULA>
C6H12O4

> <MASS>
148.15710

> <MONOISOTOPIC_MASS>
148.07356

> <CHARGE>
0

> <SMILES>
C[C@H]1O[C@H](O)[C@H](O)C[C@H]1O

> <INCHI>
InChI=1S/C6H12O4/c1-3-4(7)2-5(8)6(9)10-3/h3-9H,2H2,1H3/t3-,4-,5-,6+/m1/s1

> <INCHIKEY>
KYPWIZMAJMNPMJ-KAZBKCHUSA-N

> <PUBMED_CITATION>
84796

$$$$

Marvin  08061013552D          

 10 10  0  0  1  0            999 V2000
   10.4198   -7.8252    0.0000 O   0  0  0  0  0  0  0  0  0  0  0  0
    9.7053   -8.2377    0.0000 C   0  0  2  0  0  0  0  0  0  0  0  0
    9.7053   -9.0627    0.0000 C   0  0  1  0  0  0  0  0  0  0  0  0
    8.9908   -7.8252    0.0000 O   0  0  0  0  0  0  0  0  0  0  0  0
    8.9908   -9.4751    0.0000 C   0  0  0  0  0  0  0  0  0  0  0  0
    8.2764   -8.2377    0.0000 C   0  0  1  0  0  0  0  0  0  0  0  0
    8.2764   -9.0627    0.0000 C   0  0  1  0  0  0  0  0  0  0  0  0
   10.4198   -9.4751    0.0000 O   0  0  0  0  0  0  0  0  0  0  0  0
    7.5619   -9.4751    0.0000 O   0  0  0  0  0  0  0  0  0  0  0  0
    7.5619   -7.8252    0.0000 C   0  0  0  0  0  0  0  0  0  0  0  0
  2  3  1  0  0  0  0
  2  4  1  0  0  0  0
  3  5  1  0  0  0  0
  4  6  1  0  0  0  0
  5  7  1  0  0  0  0
  6  7  1  0  0  0  0
  2  1  1  6  0  0  0
  3  8  1  6  0  0  0
  7  9  1  6  0  0  0
  6 10  1  1  0  0  0
M  END
> <ID>
CHEBI:59993

> <NAME>
alpha-D-paratopyranose

> <DEFINITION>
The α-anomer of the pyranose form of D-paratose.

> <STAR>
3

> <SYNONYM>
alpha-paratopyranose; alpha-D-paratose

> <IUPAC_NAME>
3,6-dideoxy-alpha-D-ribo-hexopyranose

> <FORMULA>
C6H12O4

> <MASS>
148.15710

> <MONOISOTOPIC_MASS>
148.07356

> <CHARGE>
0

> <SMILES>
C[C@H]1O[C@H](O)[C@H](O)C[C@@H]1O

> <INCHI>
InChI=1S/C6H12O4/c1-3-4(7)2-5(8)6(9)10-3/h3-9H,2H2,1H3/t3-,4+,5-,6+/m1/s1

> <INCHIKEY>
KYPWIZMAJMNPMJ-MOJAZDJTSA-N

> <PUBMED_CITATION>
84796

$$$$

Marvin  08061015542D          

 20 21  0  0  0  0            999 V2000
   -0.9723    0.7714    0.0000 N   0  0  0  0  0  0  0  0  0  0  0  0
   -1.6397    1.2564    0.0000 C   0  0  0  0  0  0  0  0  0  0  0  0
   -1.3848    2.0409    0.0000 C   0  0  0  0  0  0  0  0  0  0  0  0
   -0.5598    2.0409    0.0000 C   0  0  0  0  0  0  0  0  0  0  0  0
   -0.3049    1.2564    0.0000 N   0  0  0  0  0  0  0  0  0  0  0  0
   -2.4244    1.0014    0.0000 O   0  0  0  0  0  0  0  0  0  0  0  0
   -0.0749    2.7084    0.0000 C   0  0  0  0  0  0  0  0  0  0  0  0
    0.7456    2.6222    0.0000 O   0  0  0  0  0  0  0  0  0  0  0  0
   -0.4105    3.4621    0.0000 O   0  0  0  0  0  0  0  0  0  0  0  0
   -1.8697    2.7084    0.0000 N   0  0  0  0  0  0  0  0  0  0  0  0
   -0.9723   -0.0536    0.0000 C   0  0  0  0  0  0  0  0  0  0  0  0
   -1.6868   -0.4661    0.0000 C   0  0  0  0  0  0  0  0  0  0  0  0
   -1.6868   -1.2911    0.0000 C   0  0  0  0  0  0  0  0  0  0  0  0
   -0.9723   -1.7036    0.0000 C   0  0  0  0  0  0  0  0  0  0  0  0
   -0.2579   -1.2911    0.0000 C   0  0  0  0  0  0  0  0  0  0  0  0
   -0.2579   -0.4661    0.0000 C   0  0  0  0  0  0  0  0  0  0  0  0
   -0.9723   -2.5286    0.0000 S   0  0  0  0  0  0  0  0  0  0  0  0
   -0.9723   -3.3536    0.0000 O   0  0  0  0  0  0  0  0  0  0  0  0
   -0.1473   -2.5286    0.0000 O   0  0  0  0  0  0  0  0  0  0  0  0
   -1.7973   -2.5286    0.0000 O   0  0  0  0  0  0  0  0  0  0  0  0
  1  2  1  0  0  0  0
  1  5  1  0  0  0  0
  2  3  1  0  0  0  0
  3  4  1  0  0  0  0
  4  5  2  0  0  0  0
  2  6  2  0  0  0  0
  4  7  1  0  0  0  0
  7  8  1  0  0  0  0
  7  9  2  0  0  0  0
  3 10  1  0  0  0  0
 11 12  2  0  0  0  0
 11 16  1  0  0  0  0
 12 13  1  0  0  0  0
 13 14  2  0  0  0  0
 14 15  1  0  0  0  0
 15 16  2  0  0  0  0
  1 11  1  0  0  0  0
 14 17  1  0  0  0  0
 17 18  1  0  0  0  0
 17 19  2  0  0  0  0
 17 20  2  0  0  0  0
M  END
> <ID>
CHEBI:59995

> <NAME>
1-(4-sulfophenyl)-3-carboxy-4-amino-5-oxopyrazole

> <DEFINITION>
A 4,5-dihydropyrazole having p-sulfophenyl-, carboxy-, amino- and oxo substituents at the 1-, 3-, 4- and 5-positions respectively.

> <STAR>
3

> <SYNONYM>
SCAOP; 4-Amino-5-oxo-1-(p-sulphophenyl)-2-pyrazoline-3-carboxylic acid

> <IUPAC_NAME>
4-amino-5-oxo-1-(4-sulfophenyl)-4,5-dihydro-1H-pyrazole-3-carboxylic acid

> <FORMULA>
C10H9N3O6S

> <MASS>
299.26000

> <MONOISOTOPIC_MASS>
299.02121

> <CHARGE>
0

> <SMILES>
NC1C(=O)N(N=C1C(O)=O)c1ccc(cc1)S(O)(=O)=O

> <INCHI>
InChI=1S/C10H9N3O6S/c11-7-8(10(15)16)12-13(9(7)14)5-1-3-6(4-2-5)20(17,18)19/h1-4,7H,11H2,(H,15,16)(H,17,18,19)

> <INCHIKEY>
VBKMDGXBOWYWHE-UHFFFAOYSA-N

> <BEILSTEIN_REGISTRY_NUMBER>
839911

> <CAS_REGISTRY_NUMBER>
2508-84-1

> <REAXYS_REGISTRY_NUMBER>
839911

> <CHEMIDPLUS>
2508-84-1

> <PUBMED_CITATION>
2409032

$$$$

Marvin  09021012122D          

 26 27  0  0  1  0            999 V2000
   12.5044   -5.3892    0.0000 C   0  0  1  0  0  0  0  0  0  0  0  0
   13.2189   -4.9767    0.0000 C   0  0  2  0  0  0  0  0  0  0  0  0
   12.5044   -6.2142    0.0000 O   0  0  0  0  0  0  0  0  0  0  0  0
   11.7900   -4.9767    0.0000 C   0  0  1  0  0  0  0  0  0  0  0  0
   13.2189   -4.1517    0.0000 C   0  0  0  0  0  0  0  0  0  0  0  0
   11.7900   -4.1517    0.0000 C   0  0  2  0  0  0  0  0  0  0  0  0
   11.0755   -5.3892    0.0000 O   0  0  0  0  0  0  0  0  0  0  0  0
   12.5044   -3.7392    0.0000 O   0  0  0  0  0  0  0  0  0  0  0  0
   13.9334   -3.7392    0.0000 O   0  0  0  0  0  0  0  0  0  0  0  0
   11.0755   -3.7392    0.0000 C   0  0  0  0  0  0  0  0  0  0  0  0
   10.3610   -4.1517    0.0000 O   0  0  0  0  0  0  0  0  0  0  0  0
   13.9334   -5.3892    0.0000 N   0  0  0  0  0  0  0  0  0  0  0  0
   14.6479   -4.9767    0.0000 C   0  0  0  0  0  0  0  0  0  0  0  0
   15.3623   -5.3892    0.0000 C   0  0  0  0  0  0  0  0  0  0  0  0
   14.6479   -4.1517    0.0000 O   0  0  0  0  0  0  0  0  0  0  0  0
    8.9321   -6.6267    0.0000 C   0  0  2  0  0  0  0  0  0  0  0  0
    9.6466   -7.0392    0.0000 C   0  0  1  0  0  0  0  0  0  0  0  0
   10.3610   -5.8017    0.0000 C   0  0  2  0  0  0  0  0  0  0  0  0
    9.6466   -5.3892    0.0000 O   0  0  0  0  0  0  0  0  0  0  0  0
   10.3610   -6.6267    0.0000 C   0  0  2  0  0  0  0  0  0  0  0  0
    8.9321   -5.8017    0.0000 C   0  0  2  0  0  0  0  0  0  0  0  0
   11.0754   -7.0392    0.0000 O   0  0  0  0  0  0  0  0  0  0  0  0
    9.6466   -7.8641    0.0000 O   0  0  0  0  0  0  0  0  0  0  0  0
    8.2177   -7.0392    0.0000 O   0  0  0  0  0  0  0  0  0  0  0  0
    8.2177   -5.3892    0.0000 C   0  0  0  0  0  0  0  0  0  0  0  0
    7.5032   -5.8017    0.0000 O   0  0  0  0  0  0  0  0  0  0  0  0
  1  2  1  0  0  0  0
  1  3  1  1  0  0  0
  1  4  1  0  0  0  0
  2  5  1  0  0  0  0
  2 12  1  6  0  0  0
  4  6  1  0  0  0  0
  4  7  1  6  0  0  0
  5  8  1  0  0  0  0
  5  9  1  0  0  0  0
  6 10  1  1  0  0  0
  6  8  1  0  0  0  0
 10 11  1  0  0  0  0
 12 13  1  0  0  0  0
 13 14  1  0  0  0  0
 13 15  2  0  0  0  0
 16 24  1  1  0  0  0
 17 16  1  0  0  0  0
 17 23  1  1  0  0  0
 18 19  1  0  0  0  0
 18 20  1  0  0  0  0
 20 17  1  0  0  0  0
 20 22  1  6  0  0  0
 21 16  1  0  0  0  0
 19 21  1  0  0  0  0
 21 25  1  1  0  0  0
 25 26  1  0  0  0  0
 18  7  1  1  0  0  0
M  END
> <ID>
CHEBI:60152

> <NAME>
beta-D-Galp-(1->4)-D-GlcpNAc

> <DEFINITION>
A disaccharide consisting of β-D-galactose linked via a (1→4)-glycosidic bond to N-acetyl-D-glucosamine.

> <STAR>
3

> <SYNONYM>
LacNAc; Gal-beta1,4-GlcNAc; beta-Gal1,4-GlcNAc; beta-Gal-(1->4)-GlcNAc; beta-D-Galp-(1->4)-D-GlcpNAc; beta-D-galactosyl-(1->4)-N-acetyl-D-glucosamine; beta-D-Gal-(1->4)-D-GlcNAc; 2-acetamido-2-deoxy-4-O-beta-D-galactopyranosyl-D-glucopyranose

> <IUPAC_NAME>
beta-D-galactopyranosyl-(1->4)-2-acetamido-2-deoxy-D-glucopyranose

> <FORMULA>
C14H25NO11

> <MASS>
383.34840

> <MONOISOTOPIC_MASS>
383.14276

> <CHARGE>
0

> <SMILES>
CC(=O)N[C@H]1C(O)O[C@H](CO)[C@@H](O[C@@H]2O[C@H](CO)[C@H](O)[C@H](O)[C@H]2O)[C@@H]1O

> <INCHI>
InChI=1S/C14H25NO11/c1-4(18)15-7-9(20)12(6(3-17)24-13(7)23)26-14-11(22)10(21)8(19)5(2-16)25-14/h5-14,16-17,19-23H,2-3H2,1H3,(H,15,18)/t5-,6-,7-,8+,9-,10+,11-,12-,13?,14+/m1/s1

> <INCHIKEY>
KFEUJDWYNGMDBV-RPHKZZMBSA-N

> <BEILSTEIN_REGISTRY_NUMBER>
1299159

> <REAXYS_REGISTRY_NUMBER>
1299159

> <HMDB_ACCESSION>
HMDB0001542

> <METACYC_ACCESSION>
BETA-D-GALACTOSYL-ETCETERA-GLUCOSAMINE

> <PUBMED_CITATION>
17991151; 19913595; 2458640; 4112563; 6083447; 6194884

$$$$

Marvin  09071011052D          

 31 32  0  0  0  0            999 V2000
   21.0110  -10.6117    0.0000 N   0  0  0  0  0  0  0  0  0  0  0  0
   21.7955   -9.5318    0.0000 S   0  0  0  0  0  0  0  0  0  0  0  0
   22.9949  -10.6117    0.0000 C   0  0  0  0  0  0  0  0  0  0  0  0
   22.2804  -10.1992    0.0000 C   0  0  0  0  0  0  0  0  0  0  0  0
   22.9949   -9.7867    0.0000 C   0  0  0  0  0  0  0  0  0  0  0  0
   21.7955  -10.8667    0.0000 C   0  0  2  0  0  0  0  0  0  0  0  0
   22.8574  -11.8228    0.0000 O   0  0  0  0  0  0  0  0  0  0  0  0
   22.0504  -11.6513    0.0000 C   0  0  0  0  0  0  0  0  0  0  0  0
   21.4984  -12.2643    0.0000 O   0  0  0  0  0  0  0  0  0  0  0  0
   20.2966   -8.5491    0.0000 N   0  0  0  0  0  0  0  0  0  0  0  0
   19.5821   -8.1366    0.0000 C   0  0  0  0  0  0  0  0  0  0  0  0
   18.8676   -8.5491    0.0000 O   0  0  0  0  0  0  0  0  0  0  0  0
   19.5821   -7.3117    0.0000 C   0  0  0  0  0  0  0  0  0  0  0  0
   18.8677   -6.0742    0.0000 C   0  0  0  0  0  0  0  0  0  0  0  0
   18.1532   -5.6617    0.0000 C   0  0  0  0  0  0  0  0  0  0  0  0
   17.4388   -6.0741    0.0000 C   0  0  0  0  0  0  0  0  0  0  0  0
   17.4388   -6.8992    0.0000 C   0  0  0  0  0  0  0  0  0  0  0  0
   18.1532   -7.3117    0.0000 C   0  0  0  0  0  0  0  0  0  0  0  0
   18.8677   -6.8992    0.0000 C   0  0  0  0  0  0  0  0  0  0  0  0
   21.0110   -9.7867    0.0000 C   0  0  2  0  0  0  0  0  0  0  0  0
   21.0110   -8.9617    0.0000 H   0  0  0  0  0  0  0  0  0  0  0  0
   20.2966   -9.3742    0.0000 C   0  0  1  0  0  0  0  0  0  0  0  0
   19.5821   -9.7867    0.0000 C   0  0  0  0  0  0  0  0  0  0  0  0
   19.5821  -10.6117    0.0000 O   0  0  0  0  0  0  0  0  0  0  0  0
   17.4387   -9.3742    0.0000 C   0  0  0  0  0  0  0  0  0  0  0  0
   18.1532   -9.7867    0.0000 C   0  0  2  0  0  0  0  0  0  0  0  0
   18.1532  -10.6116    0.0000 C   0  0  0  0  0  0  0  0  0  0  0  0
   17.4387   -8.5492    0.0000 O   0  0  0  0  0  0  0  0  0  0  0  0
   16.7243   -9.7868    0.0000 O   0  0  0  0  0  0  0  0  0  0  0  0
   18.8676   -9.3742    0.0000 N   0  0  0  0  0  0  0  0  0  0  0  0
   17.4387  -11.0241    0.0000 S   0  0  0  0  0  0  0  0  0  0  0  0
  1  6  1  0  0  0  0
 20  1  1  0  0  0  0
  2 20  1  0  0  0  0
  2  4  1  0  0  0  0
  6  4  1  0  0  0  0
  4  3  1  0  0  0  0
  4  5  1  0  0  0  0
  6  8  1  6  0  0  0
  8  7  1  0  0  0  0
  8  9  2  0  0  0  0
 22 10  1  1  0  0  0
 10 11  1  0  0  0  0
 11 13  1  0  0  0  0
 11 12  2  0  0  0  0
 13 19  1  0  0  0  0
 14 15  1  0  0  0  0
 14 19  2  0  0  0  0
 15 16  2  0  0  0  0
 16 17  1  0  0  0  0
 17 18  2  0  0  0  0
 18 19  1  0  0  0  0
 20 21  1  6  0  0  0
 20 22  1  0  0  0  0
 22 23  1  0  0  0  0
 23 24  2  0  0  0  0
 23 30  1  0  0  0  0
 26 25  1  0  0  0  0
 29 25  1  0  0  0  0
 28 25  2  0  0  0  0
 27 26  1  0  0  0  0
 26 30  1  1  0  0  0
 31 27  1  0  0  0  0
M  END
> <ID>
CHEBI:60178

> <NAME>
benzylpenicilloyl-cysteine

> <DEFINITION>
A compound obtained from nucleophilic cleavage of the β-lactam ring of benzylpenicillin by the amino group of L-cysteine.

> <STAR>
3

> <SYNONYM>
PNCy; cysteine derivative of penicillin; cysteine derivative of benzylpenicillin; benzylpenicilloyl cysteine

> <IUPAC_NAME>
(2R,4S)-2-{(1R)-2-{[(1R)-1-carboxy-2-sulfanylethyl]amino}-2-oxo-1-[(phenylacetyl)amino]ethyl}-5,5-dimethyl-1,3-thiazolidine-4-carboxylic acid

> <FORMULA>
C19H25N3O6S2

> <MASS>
455.54800

> <MONOISOTOPIC_MASS>
455.11848

> <CHARGE>
0

> <SMILES>
[H][C@]1(N[C@@H](C(O)=O)C(C)(C)S1)[C@H](NC(=O)Cc1ccccc1)C(=O)N[C@@H](CS)C(O)=O

> <INCHI>
InChI=1S/C19H25N3O6S2/c1-19(2)14(18(27)28)22-16(30-19)13(15(24)20-11(9-29)17(25)26)21-12(23)8-10-6-4-3-5-7-10/h3-7,11,13-14,16,22,29H,8-9H2,1-2H3,(H,20,24)(H,21,23)(H,25,26)(H,27,28)/t11-,13+,14-,16+/m0/s1

> <INCHIKEY>
ZKVQVUUPDWIKAR-ZGMNHVEMSA-N

> <BEILSTEIN_REGISTRY_NUMBER>
64275

> <REAXYS_REGISTRY_NUMBER>
64275

> <PUBMED_CITATION>
13720937

$$$$

Marvin  09031011352D          

 34 36  0  0  1  0            999 V2000
   14.0715   -2.9052    0.0000 C   0  0  0  0  0  0  0  0  0  0  0  0
   14.0715   -3.7302    0.0000 C   0  0  1  0  0  0  0  0  0  0  0  0
   13.3571   -2.4927    0.0000 O   0  0  0  0  0  0  0  0  0  0  0  0
   13.3571   -4.1427    0.0000 C   0  0  2  0  0  0  0  0  0  0  0  0
   12.6426   -2.9052    0.0000 C   0  0  1  0  0  0  0  0  0  0  0  0
   12.6426   -3.7302    0.0000 C   0  0  2  0  0  0  0  0  0  0  0  0
   14.7860   -2.4927    0.0000 O   0  0  0  0  0  0  0  0  0  0  0  0
   14.7860   -4.1427    0.0000 O   0  0  0  0  0  0  0  0  0  0  0  0
   13.3570   -4.9677    0.0000 O   0  0  0  0  0  0  0  0  0  0  0  0
   11.9281   -4.1427    0.0000 O   0  0  0  0  0  0  0  0  0  0  0  0
   11.9281   -2.4927    0.0000 C   0  0  0  0  0  0  0  0  0  0  0  0
   11.2136   -2.9052    0.0000 O   0  0  0  0  0  0  0  0  0  0  0  0
   11.2137   -4.5552    0.0000 C   0  0  1  0  0  0  0  0  0  0  0  0
   11.2137   -5.3802    0.0000 C   0  0  1  0  0  0  0  0  0  0  0  0
   10.4992   -4.1427    0.0000 O   0  0  0  0  0  0  0  0  0  0  0  0
   10.4992   -5.7926    0.0000 C   0  0  2  0  0  0  0  0  0  0  0  0
    9.7848   -4.5552    0.0000 C   0  0  1  0  0  0  0  0  0  0  0  0
    9.7848   -5.3802    0.0000 C   0  0  2  0  0  0  0  0  0  0  0  0
   11.9281   -5.7927    0.0000 O   0  0  0  0  0  0  0  0  0  0  0  0
   10.4992   -6.6176    0.0000 O   0  0  0  0  0  0  0  0  0  0  0  0
    9.0703   -5.7926    0.0000 O   0  0  0  0  0  0  0  0  0  0  0  0
    9.0703   -4.1427    0.0000 C   0  0  0  0  0  0  0  0  0  0  0  0
    8.3558   -4.5552    0.0000 O   0  0  0  0  0  0  0  0  0  0  0  0
    9.7846   -7.0302    0.0000 C   0  0  2  0  0  0  0  0  0  0  0  0
    9.7846   -7.8552    0.0000 C   0  0  1  0  0  0  0  0  0  0  0  0
    9.0702   -6.6177    0.0000 O   0  0  0  0  0  0  0  0  0  0  0  0
    9.0702   -8.2677    0.0000 C   0  0  2  0  0  0  0  0  0  0  0  0
    8.3558   -7.0302    0.0000 C   0  0  1  0  0  0  0  0  0  0  0  0
    8.3558   -7.8552    0.0000 C   0  0  2  0  0  0  0  0  0  0  0  0
   10.4992   -8.2677    0.0000 O   0  0  0  0  0  0  0  0  0  0  0  0
    9.0702   -9.0926    0.0000 O   0  0  0  0  0  0  0  0  0  0  0  0
    7.6413   -8.2676    0.0000 O   0  0  0  0  0  0  0  0  0  0  0  0
    7.6413   -6.6177    0.0000 C   0  0  0  0  0  0  0  0  0  0  0  0
    6.9268   -7.0302    0.0000 O   0  0  0  0  0  0  0  0  0  0  0  0
  1  2  1  0  0  0  0
  1  3  1  0  0  0  0
  2  4  1  0  0  0  0
  3  5  1  0  0  0  0
  4  6  1  0  0  0  0
  5  6  1  0  0  0  0
  1  7  1  0  0  0  0
  2  8  1  6  0  0  0
  4  9  1  1  0  0  0
  6 10  1  1  0  0  0
  5 11  1  1  0  0  0
 12 11  1  0  0  0  0
 13 14  1  0  0  0  0
 13 15  1  0  0  0  0
 14 16  1  0  0  0  0
 15 17  1  0  0  0  0
 16 18  1  0  0  0  0
 17 18  1  0  0  0  0
 13 10  1  1  0  0  0
 14 19  1  6  0  0  0
 16 20  1  1  0  0  0
 18 21  1  1  0  0  0
 17 22  1  1  0  0  0
 23 22  1  0  0  0  0
 24 25  1  0  0  0  0
 24 26  1  0  0  0  0
 25 27  1  0  0  0  0
 26 28  1  0  0  0  0
 27 29  1  0  0  0  0
 28 29  1  0  0  0  0
 24 20  1  6  0  0  0
 25 30  1  6  0  0  0
 27 31  1  1  0  0  0
 29 32  1  1  0  0  0
 28 33  1  1  0  0  0
 34 33  1  0  0  0  0
M  END
> <ID>
CHEBI:60187

> <NAME>
alpha-D-Gal-(1->3)-beta-D-Gal-(1->4)-D-Gal

> <DEFINITION>
A galactotriose in which the three D-galactosyl residues are connected via sequential α-(1→3)- and β-(1→4)-linkages.

> <STAR>
3

> <SECONDARY_ID>
CHEBI:62782

> <SYNONYM>
alphaGal1-3betaGal1-4Gal; alpha-D-Galp-(1->3)-beta-D-Galp-(1->4)-D-Galp; alpha-D-galactosyl-(1->3)-beta-D-galactosyl-(1->4)-D-galactose; (Gal)3

> <IUPAC_NAME>
alpha-D-galactopyranosyl-(1->3)-beta-D-galactopyranosyl-(1->4)-D-galactopyranose

> <FORMULA>
C18H32O16

> <MASS>
504.43710

> <MONOISOTOPIC_MASS>
504.16903

> <CHARGE>
0

> <SMILES>
OC[C@H]1O[C@H](O[C@H]2[C@@H](O)[C@@H](CO)O[C@@H](O[C@H]3[C@@H](CO)OC(O)[C@H](O)[C@H]3O)[C@@H]2O)[C@H](O)[C@@H](O)[C@H]1O

> <INCHI>
InChI=1S/C18H32O16/c19-1-4-7(22)9(24)12(27)17(31-4)34-15-8(23)5(2-20)32-18(13(15)28)33-14-6(3-21)30-16(29)11(26)10(14)25/h4-29H,1-3H2/t4-,5-,6-,7+,8+,9+,10-,11-,12-,13-,14+,15+,16?,17-,18+/m1/s1

> <INCHIKEY>
ODDPRQJTYDIWJU-RXOJRZLOSA-N

> <BEILSTEIN_REGISTRY_NUMBER>
10406081

> <REAXYS_REGISTRY_NUMBER>
10406081

> <KEGG_GLYCAN_ACCESSION>
G02476

> <PUBMED_CITATION>
16442513; 19913595; 8154046

$$$$

Marvin  10311114112D          

 45 48  0  0  1  0            999 V2000
   14.4186   -5.1095    0.0000 C   0  0  2  0  0  0  0  0  0  0  0  0
   14.4186   -5.9345    0.0000 C   0  0  1  0  0  0  0  0  0  0  0  0
   13.7042   -4.6970    0.0000 O   0  0  0  0  0  0  0  0  0  0  0  0
   13.7042   -6.3469    0.0000 C   0  0  2  0  0  0  0  0  0  0  0  0
   12.9898   -5.1095    0.0000 C   0  0  1  0  0  0  0  0  0  0  0  0
   12.9898   -5.9345    0.0000 C   0  0  2  0  0  0  0  0  0  0  0  0
   15.1331   -4.6970    0.0000 O   0  0  0  0  0  0  0  0  0  0  0  0
   15.1331   -6.3469    0.0000 O   0  0  0  0  0  0  0  0  0  0  0  0
   13.7042   -7.1719    0.0000 O   0  0  0  0  0  0  0  0  0  0  0  0
   12.2753   -6.3469    0.0000 O   0  0  0  0  0  0  0  0  0  0  0  0
   12.2753   -4.6970    0.0000 C   0  0  0  0  0  0  0  0  0  0  0  0
   11.5608   -5.1095    0.0000 O   0  0  0  0  0  0  0  0  0  0  0  0
   11.5609   -6.7594    0.0000 C   0  0  1  0  0  0  0  0  0  0  0  0
   11.5609   -7.5844    0.0000 C   0  0  1  0  0  0  0  0  0  0  0  0
   10.8464   -6.3469    0.0000 O   0  0  0  0  0  0  0  0  0  0  0  0
   10.8464   -7.9968    0.0000 C   0  0  2  0  0  0  0  0  0  0  0  0
   10.1320   -6.7594    0.0000 C   0  0  1  0  0  0  0  0  0  0  0  0
   10.1320   -7.5844    0.0000 C   0  0  2  0  0  0  0  0  0  0  0  0
   12.2753   -7.9969    0.0000 O   0  0  0  0  0  0  0  0  0  0  0  0
   10.8464   -8.8218    0.0000 O   0  0  0  0  0  0  0  0  0  0  0  0
    9.4176   -7.9968    0.0000 O   0  0  0  0  0  0  0  0  0  0  0  0
    9.4176   -6.3469    0.0000 C   0  0  0  0  0  0  0  0  0  0  0  0
    8.7030   -6.7594    0.0000 O   0  0  0  0  0  0  0  0  0  0  0  0
   10.1318   -9.2344    0.0000 C   0  0  2  0  0  0  0  0  0  0  0  0
   10.1318  -10.0594    0.0000 C   0  0  1  0  0  0  0  0  0  0  0  0
    9.4174   -8.8219    0.0000 O   0  0  0  0  0  0  0  0  0  0  0  0
    9.4174  -10.4718    0.0000 C   0  0  2  0  0  0  0  0  0  0  0  0
    8.7030   -9.2344    0.0000 C   0  0  1  0  0  0  0  0  0  0  0  0
    8.7030  -10.0594    0.0000 C   0  0  2  0  0  0  0  0  0  0  0  0
   10.8464  -10.4718    0.0000 O   0  0  0  0  0  0  0  0  0  0  0  0
    9.4174  -11.2967    0.0000 O   0  0  0  0  0  0  0  0  0  0  0  0
    7.9886  -10.4718    0.0000 O   0  0  0  0  0  0  0  0  0  0  0  0
    7.9886   -8.8219    0.0000 C   0  0  0  0  0  0  0  0  0  0  0  0
    7.2741   -9.2344    0.0000 O   0  0  0  0  0  0  0  0  0  0  0  0
   15.8476   -2.6344    0.0000 C   0  0  0  0  0  0  0  0  0  0  0  0
   15.8476   -3.4594    0.0000 C   0  0  1  0  0  0  0  0  0  0  0  0
   15.1331   -2.2219    0.0000 O   0  0  0  0  0  0  0  0  0  0  0  0
   15.1331   -3.8720    0.0000 C   0  0  2  0  0  0  0  0  0  0  0  0
   14.4186   -2.6344    0.0000 C   0  0  1  0  0  0  0  0  0  0  0  0
   14.4186   -3.4594    0.0000 C   0  0  2  0  0  0  0  0  0  0  0  0
   16.5621   -2.2219    0.0000 O   0  0  0  0  0  0  0  0  0  0  0  0
   16.5621   -3.8720    0.0000 O   0  0  0  0  0  0  0  0  0  0  0  0
   13.7042   -3.8720    0.0000 O   0  0  0  0  0  0  0  0  0  0  0  0
   13.7042   -2.2219    0.0000 C   0  0  0  0  0  0  0  0  0  0  0  0
   12.9897   -2.6344    0.0000 O   0  0  0  0  0  0  0  0  0  0  0  0
  1  2  1  0  0  0  0
  1  3  1  0  0  0  0
  2  4  1  0  0  0  0
  3  5  1  0  0  0  0
  4  6  1  0  0  0  0
  5  6  1  0  0  0  0
  1  7  1  6  0  0  0
  2  8  1  6  0  0  0
  4  9  1  1  0  0  0
  6 10  1  1  0  0  0
  5 11  1  1  0  0  0
 12 11  1  0  0  0  0
 13 14  1  0  0  0  0
 13 15  1  0  0  0  0
 14 16  1  0  0  0  0
 15 17  1  0  0  0  0
 16 18  1  0  0  0  0
 17 18  1  0  0  0  0
 13 10  1  1  0  0  0
 14 19  1  6  0  0  0
 16 20  1  1  0  0  0
 18 21  1  1  0  0  0
 17 22  1  1  0  0  0
 23 22  1  0  0  0  0
 24 25  1  0  0  0  0
 24 26  1  0  0  0  0
 25 27  1  0  0  0  0
 26 28  1  0  0  0  0
 27 29  1  0  0  0  0
 28 29  1  0  0  0  0
 24 20  1  6  0  0  0
 25 30  1  6  0  0  0
 27 31  1  1  0  0  0
 29 32  1  1  0  0  0
 28 33  1  1  0  0  0
 34 33  1  0  0  0  0
 35 36  1  0  0  0  0
 35 37  1  0  0  0  0
 36 38  1  0  0  0  0
 37 39  1  0  0  0  0
 38 40  1  0  0  0  0
 39 40  1  0  0  0  0
 35 41  1  0  0  0  0
 36 42  1  6  0  0  0
 38  7  1  1  0  0  0
 40 43  1  1  0  0  0
 39 44  1  1  0  0  0
 45 44  1  0  0  0  0
M  END
> <ID>
CHEBI:60188

> <NAME>
alpha-D-Galp-(1->3)-beta-D-Galp-(1->4)-alpha-D-Galp-(1->3)-D-Galp

> <DEFINITION>
A galactotetraose comprised of four D-galactose residues connected sequentially by α(1→3), β(1→4) and α(1→3) linkages.

> <STAR>
3

> <SECONDARY_ID>
CHEBI:62977; CHEBI:63138

> <SYNONYM>
Galalpha1-3Galbeta1-4Galalpha1-3Gal; alphaGal1-3betaGal1-4alphaGal1-3Gal; alpha-Gal-(1->3)-beta-Gal-(1->4)-alpha-Gal-(1->3)-Gal; alpha-D-galactosyl-(1->3)-beta-D-galactosyl-(1->4)-alpha-D-galactosyl-(1->3)-D-galactose; alpha-D-Gal-(1->3)-beta-D-Gal-(1->4)-alpha-D-Gal-(1->3)-D-Gal; 3alpha,4beta,3alpha-galactotetraose; (Gal)4

> <IUPAC_NAME>
alpha-D-galactopyranosyl-(1->3)-beta-D-galactopyranosyl-(1->4)-alpha-D-galactopyranosyl-(1->3)-D-galactopyranose

> <FORMULA>
C24H42O21

> <MASS>
666.57770

> <MONOISOTOPIC_MASS>
666.22186

> <CHARGE>
0

> <SMILES>
OC[C@H]1O[C@H](O[C@H]2[C@@H](O)[C@@H](CO)O[C@@H](O[C@H]3[C@@H](CO)O[C@H](O[C@@H]4[C@@H](O)C(O)O[C@H](CO)[C@@H]4O)[C@H](O)[C@H]3O)[C@@H]2O)[C@H](O)[C@@H](O)[C@H]1O

> <INCHI>
InChI=1S/C24H42O21/c25-1-5-9(29)12(32)14(34)22(40-5)45-20-11(31)7(3-27)41-24(17(20)37)43-18-8(4-28)42-23(15(35)13(18)33)44-19-10(30)6(2-26)39-21(38)16(19)36/h5-38H,1-4H2/t5-,6-,7-,8-,9+,10+,11+,12+,13-,14-,15-,16-,17-,18+,19+,20+,21?,22-,23-,24+/m1/s1

> <INCHIKEY>
HEAHRYDVILRNFD-FGKFJTINSA-N

> <BEILSTEIN_REGISTRY_NUMBER>
1633281

> <REAXYS_REGISTRY_NUMBER>
1633281

> <KEGG_GLYCAN_ACCESSION>
G07522

> <PUBMED_CITATION>
19913595; 8154046

$$$$

Marvin  09081013272D          

 37 39  0  0  1  0            999 V2000
   15.2069   -8.8822    0.0000 C   0  0  0  0  0  0  0  0  0  0  0  0
   15.2069   -9.7071    0.0000 C   0  0  1  0  0  0  0  0  0  0  0  0
   14.4925   -8.4697    0.0000 O   0  0  0  0  0  0  0  0  0  0  0  0
   14.4925  -10.1196    0.0000 C   0  0  2  0  0  0  0  0  0  0  0  0
   13.7780   -8.8822    0.0000 C   0  0  1  0  0  0  0  0  0  0  0  0
   13.7780   -9.7071    0.0000 C   0  0  2  0  0  0  0  0  0  0  0  0
   15.9215   -8.4697    0.0000 O   0  0  0  0  0  0  0  0  0  0  0  0
   15.9215  -10.1196    0.0000 O   0  0  0  0  0  0  0  0  0  0  0  0
   14.4925  -10.9446    0.0000 O   0  0  0  0  0  0  0  0  0  0  0  0
   13.0635  -10.1196    0.0000 O   0  0  0  0  0  0  0  0  0  0  0  0
   13.0635   -8.4697    0.0000 C   0  0  0  0  0  0  0  0  0  0  0  0
   12.3491   -8.8822    0.0000 O   0  0  0  0  0  0  0  0  0  0  0  0
   11.6347   -8.4697    0.0000 C   0  0  1  0  0  0  0  0  0  0  0  0
   10.9202   -8.8821    0.0000 C   0  0  1  0  0  0  0  0  0  0  0  0
   11.6347   -7.6447    0.0000 O   0  0  0  0  0  0  0  0  0  0  0  0
   10.2057   -8.4696    0.0000 C   0  0  2  0  0  0  0  0  0  0  0  0
   10.9202   -7.2321    0.0000 C   0  0  1  0  0  0  0  0  0  0  0  0
   10.2057   -7.6446    0.0000 C   0  0  1  0  0  0  0  0  0  0  0  0
   10.9202   -9.7071    0.0000 N   0  0  0  0  0  0  0  0  0  0  0  0
    9.4912   -8.8820    0.0000 O   0  0  0  0  0  0  0  0  0  0  0  0
    9.4912   -7.2320    0.0000 O   0  0  0  0  0  0  0  0  0  0  0  0
   10.9202   -6.4071    0.0000 C   0  0  0  0  0  0  0  0  0  0  0  0
   10.2058   -5.9946    0.0000 O   0  0  0  0  0  0  0  0  0  0  0  0
    8.7768   -6.8196    0.0000 C   0  0  1  0  0  0  0  0  0  0  0  0
    8.0624   -7.2321    0.0000 C   0  0  1  0  0  0  0  0  0  0  0  0
    8.7768   -5.9945    0.0000 O   0  0  0  0  0  0  0  0  0  0  0  0
    7.3478   -6.8195    0.0000 C   0  0  2  0  0  0  0  0  0  0  0  0
    8.0624   -5.5821    0.0000 C   0  0  1  0  0  0  0  0  0  0  0  0
    7.3479   -5.9945    0.0000 C   0  0  2  0  0  0  0  0  0  0  0  0
    8.0623   -8.0570    0.0000 O   0  0  0  0  0  0  0  0  0  0  0  0
    6.6333   -7.2320    0.0000 O   0  0  0  0  0  0  0  0  0  0  0  0
    6.6334   -5.5820    0.0000 O   0  0  0  0  0  0  0  0  0  0  0  0
    8.0624   -4.7571    0.0000 C   0  0  0  0  0  0  0  0  0  0  0  0
    7.3479   -4.3445    0.0000 O   0  0  0  0  0  0  0  0  0  0  0  0
   11.6346  -10.1196    0.0000 C   0  0  0  0  0  0  0  0  0  0  0  0
   12.3491   -9.7071    0.0000 O   0  0  0  0  0  0  0  0  0  0  0  0
   11.6346  -10.9446    0.0000 C   0  0  0  0  0  0  0  0  0  0  0  0
  1  2  1  0  0  0  0
  1  3  1  0  0  0  0
  2  4  1  0  0  0  0
  3  5  1  0  0  0  0
  4  6  1  0  0  0  0
  5  6  1  0  0  0  0
  1  7  1  0  0  0  0
  2  8  1  6  0  0  0
  4  9  1  1  0  0  0
  6 10  1  1  0  0  0
  5 11  1  1  0  0  0
 12 11  1  0  0  0  0
 13 14  1  0  0  0  0
 13 15  1  0  0  0  0
 14 16  1  0  0  0  0
 15 17  1  0  0  0  0
 16 18  1  0  0  0  0
 17 18  1  0  0  0  0
 14 19  1  6  0  0  0
 16 20  1  1  0  0  0
 18 21  1  6  0  0  0
 17 22  1  1  0  0  0
 23 22  1  0  0  0  0
 24 25  1  0  0  0  0
 24 26  1  0  0  0  0
 25 27  1  0  0  0  0
 26 28  1  0  0  0  0
 27 29  1  0  0  0  0
 28 29  1  0  0  0  0
 24 21  1  1  0  0  0
 25 30  1  6  0  0  0
 27 31  1  1  0  0  0
 29 32  1  1  0  0  0
 28 33  1  1  0  0  0
 34 33  1  0  0  0  0
 36 35  2  0  0  0  0
 37 35  1  0  0  0  0
 19 35  1  0  0  0  0
 13 12  1  1  0  0  0
M  END
> <ID>
CHEBI:60214

> <NAME>
beta-D-Gal-(1->4)-beta-D-GlcNAc-(1->6)-D-Gal

> <DEFINITION>
An amino trisaccharide consisting of an N-acetyl-D-glucosamine flanked by two D-galactose residues in a linear sequence with (1→4) and (1→4) linkages.

> <STAR>
3

> <SYNONYM>
Galbeta1-4GlcNAcbeta1-6Gal; beta-D-Galp-(1->4)-beta-D-GlcpNAc-(1->6)-D-Galp; beta-D-galactosyl-(1->4)-N-acetyl-beta-D-glucosaminyl-(1->6)-D-galactose; (Gal)2 (GlcNAc)1

> <IUPAC_NAME>
beta-D-galactopyranosyl-(1->4)-2-acetamido-2-deoxy-beta-D-glucopyranosyl-(1->6)-D-galactopyranose

> <FORMULA>
C20H35NO16

> <MASS>
545.48900

> <MONOISOTOPIC_MASS>
545.19558

> <CHARGE>
0

> <SMILES>
CC(=O)N[C@@H]1[C@@H](O)[C@H](O[C@@H]2O[C@H](CO)[C@H](O)[C@H](O)[C@H]2O)[C@@H](CO)O[C@H]1OC[C@H]1OC(O)[C@H](O)[C@@H](O)[C@H]1O

> <INCHI>
InChI=1S/C20H35NO16/c1-5(24)21-9-12(27)17(37-20-16(31)14(29)10(25)6(2-22)35-20)7(3-23)36-19(9)33-4-8-11(26)13(28)15(30)18(32)34-8/h6-20,22-23,25-32H,2-4H2,1H3,(H,21,24)/t6-,7-,8-,9-,10+,11+,12-,13+,14+,15-,16-,17-,18?,19-,20+/m1/s1

> <INCHIKEY>
VZIJAGXHAXHZJU-MRGJSYKYSA-N

> <BEILSTEIN_REGISTRY_NUMBER>
4620259

> <REAXYS_REGISTRY_NUMBER>
4620259

> <KEGG_GLYCAN_ACCESSION>
G00334

> <PUBMED_CITATION>
1954629; 19913595; 6208947

$$$$

Marvin  09091013582D          

 48 51  0  0  1  0            999 V2000
   12.1659   -4.5685    0.0000 C   0  0  1  0  0  0  0  0  0  0  0  0
   12.1659   -5.3935    0.0000 C   0  0  1  0  0  0  0  0  0  0  0  0
   11.4514   -4.1560    0.0000 O   0  0  0  0  0  0  0  0  0  0  0  0
   11.4514   -5.8061    0.0000 C   0  0  2  0  0  0  0  0  0  0  0  0
   10.7369   -4.5685    0.0000 C   0  0  1  0  0  0  0  0  0  0  0  0
   10.7369   -5.3935    0.0000 C   0  0  2  0  0  0  0  0  0  0  0  0
   12.8804   -4.1560    0.0000 O   0  0  0  0  0  0  0  0  0  0  0  0
   12.8804   -5.8061    0.0000 O   0  0  0  0  0  0  0  0  0  0  0  0
   11.4514   -6.6311    0.0000 O   0  0  0  0  0  0  0  0  0  0  0  0
   10.0224   -5.8061    0.0000 O   0  0  0  0  0  0  0  0  0  0  0  0
   10.0224   -4.1560    0.0000 C   0  0  0  0  0  0  0  0  0  0  0  0
    9.3078   -4.5685    0.0000 O   0  0  0  0  0  0  0  0  0  0  0  0
   10.7369   -7.0437    0.0000 C   0  0  1  0  0  0  0  0  0  0  0  0
   10.7369   -7.8687    0.0000 C   0  0  1  0  0  0  0  0  0  0  0  0
   10.0223   -6.6311    0.0000 O   0  0  0  0  0  0  0  0  0  0  0  0
   10.0223   -8.2812    0.0000 C   0  0  2  0  0  0  0  0  0  0  0  0
    9.3078   -7.0437    0.0000 C   0  0  1  0  0  0  0  0  0  0  0  0
    9.3078   -7.8687    0.0000 C   0  0  1  0  0  0  0  0  0  0  0  0
   11.4514   -8.2812    0.0000 N   0  0  0  0  0  0  0  0  0  0  0  0
   10.0223   -9.1063    0.0000 O   0  0  0  0  0  0  0  0  0  0  0  0
    8.5933   -8.2812    0.0000 O   0  0  0  0  0  0  0  0  0  0  0  0
    8.5933   -6.6311    0.0000 C   0  0  0  0  0  0  0  0  0  0  0  0
    7.8788   -7.0437    0.0000 O   0  0  0  0  0  0  0  0  0  0  0  0
    7.8788   -8.6937    0.0000 C   0  0  1  0  0  0  0  0  0  0  0  0
    7.8788   -9.5187    0.0000 C   0  0  1  0  0  0  0  0  0  0  0  0
    7.1643   -8.2812    0.0000 O   0  0  0  0  0  0  0  0  0  0  0  0
    7.1643   -9.9313    0.0000 C   0  0  2  0  0  0  0  0  0  0  0  0
    6.4498   -8.6937    0.0000 C   0  0  1  0  0  0  0  0  0  0  0  0
    6.4498   -9.5187    0.0000 C   0  0  2  0  0  0  0  0  0  0  0  0
    8.5933   -9.9314    0.0000 O   0  0  0  0  0  0  0  0  0  0  0  0
    7.1643  -10.7563    0.0000 O   0  0  0  0  0  0  0  0  0  0  0  0
    5.7353   -9.9313    0.0000 O   0  0  0  0  0  0  0  0  0  0  0  0
    5.7353   -8.2812    0.0000 C   0  0  0  0  0  0  0  0  0  0  0  0
    5.0208   -8.6938    0.0000 O   0  0  0  0  0  0  0  0  0  0  0  0
   12.1659   -7.8688    0.0000 C   0  0  0  0  0  0  0  0  0  0  0  0
   12.1659   -7.0437    0.0000 O   0  0  0  0  0  0  0  0  0  0  0  0
   12.8803   -8.2813    0.0000 C   0  0  0  0  0  0  0  0  0  0  0  0
   14.3094   -4.9811    0.0000 O   0  0  0  0  0  0  0  0  0  0  0  0
   15.0239   -2.9185    0.0000 C   0  0  0  0  0  0  0  0  0  0  0  0
   15.0239   -3.7435    0.0000 C   0  0  1  0  0  0  0  0  0  0  0  0
   14.3094   -2.5060    0.0000 O   0  0  0  0  0  0  0  0  0  0  0  0
   14.3094   -4.1560    0.0000 C   0  0  2  0  0  0  0  0  0  0  0  0
   13.5949   -2.9185    0.0000 C   0  0  1  0  0  0  0  0  0  0  0  0
   13.5949   -3.7435    0.0000 C   0  0  1  0  0  0  0  0  0  0  0  0
   15.7384   -2.5060    0.0000 O   0  0  0  0  0  0  0  0  0  0  0  0
   15.7384   -4.1560    0.0000 O   0  0  0  0  0  0  0  0  0  0  0  0
   12.8804   -2.5060    0.0000 C   0  0  0  0  0  0  0  0  0  0  0  0
   12.1659   -2.9185    0.0000 O   0  0  0  0  0  0  0  0  0  0  0  0
  1  2  1  0  0  0  0
  1  3  1  0  0  0  0
  2  4  1  0  0  0  0
  3  5  1  0  0  0  0
  4  6  1  0  0  0  0
  5  6  1  0  0  0  0
  1  7  1  1  0  0  0
  2  8  1  6  0  0  0
  4  9  1  1  0  0  0
  6 10  1  1  0  0  0
  5 11  1  1  0  0  0
 12 11  1  0  0  0  0
 13 14  1  0  0  0  0
 13 15  1  0  0  0  0
 14 16  1  0  0  0  0
 15 17  1  0  0  0  0
 16 18  1  0  0  0  0
 17 18  1  0  0  0  0
 13  9  1  1  0  0  0
 14 19  1  6  0  0  0
 16 20  1  1  0  0  0
 18 21  1  6  0  0  0
 17 22  1  1  0  0  0
 23 22  1  0  0  0  0
 24 25  1  0  0  0  0
 24 26  1  0  0  0  0
 25 27  1  0  0  0  0
 26 28  1  0  0  0  0
 27 29  1  0  0  0  0
 28 29  1  0  0  0  0
 24 21  1  1  0  0  0
 25 30  1  6  0  0  0
 27 31  1  1  0  0  0
 29 32  1  1  0  0  0
 28 33  1  1  0  0  0
 34 33  1  0  0  0  0
 36 35  2  0  0  0  0
 37 35  1  0  0  0  0
 19 35  1  0  0  0  0
 39 40  1  0  0  0  0
 39 41  1  0  0  0  0
 40 42  1  0  0  0  0
 41 43  1  0  0  0  0
 42 44  1  0  0  0  0
 43 44  1  0  0  0  0
 39 45  1  0  0  0  0
 40 46  1  6  0  0  0
 42 38  1  1  0  0  0
 44  7  1  6  0  0  0
 43 47  1  1  0  0  0
 48 47  1  0  0  0  0
M  END
> <ID>
CHEBI:60239

> <NAME>
beta-D-Gal-(1->4)-beta-D-GlcNAc-(1->3)-beta-D-Gal-(1->4)-D-Glc

> <DEFINITION>
An amino tetrasaccharide comprising residues of galactose, N-acetylglucosamine, galactose and glucose in a linear sequence, all joined by β-linkages.

> <STAR>
3

> <SYNONYM>
nLc4; LNnT; LNneoT; Lacto-N-neotetraose; Galbeta1-4GlcNAcbeta1-3Galbeta1-4Glc; Gal-beta1,4-GlcNAc-beta1,3Gal-beta1,4Glc; beta-D-Galp-(1->4)-beta-D-GlcpNAc-(1->3)-beta-D-Galp-(1->4)-D-Glcp; beta-D-galactosyl-(1->4)-beta-D-N-acetylglucosaminyl-(1->3)-beta-D-galactosyl-(1->4)-D-glucose; beta-D-Gal-(1->4)-beta-D-GlcNAc-(1->3)-beta-D-Gal-(1->4)-D-Glc; (Gal)2 (Glc)1 (GlcNAc)1

> <IUPAC_NAME>
beta-D-galactopyranosyl-(1->4)-2-acetamido-2-deoxy-beta-D-glucopyranosyl-(1->3)-beta-D-galactopyranosyl-(1->4)-D-glucopyranose

> <FORMULA>
C26H45NO21

> <MASS>
707.62960

> <MONOISOTOPIC_MASS>
707.24841

> <CHARGE>
0

> <SMILES>
CC(=O)N[C@@H]1[C@@H](O)[C@H](O[C@@H]2O[C@H](CO)[C@H](O)[C@H](O)[C@H]2O)[C@@H](CO)O[C@H]1O[C@H]1[C@@H](O)[C@@H](CO)O[C@@H](O[C@H]2[C@H](O)[C@@H](O)C(O)O[C@@H]2CO)[C@@H]1O

> <INCHI>
InChI=1S/C26H45NO21/c1-6(32)27-11-14(35)20(46-25-18(39)15(36)12(33)7(2-28)43-25)10(5-31)45-24(11)48-22-13(34)8(3-29)44-26(19(22)40)47-21-9(4-30)42-23(41)17(38)16(21)37/h7-26,28-31,33-41H,2-5H2,1H3,(H,27,32)/t7-,8-,9-,10-,11-,12+,13+,14-,15+,16-,17-,18-,19-,20-,21-,22+,23?,24+,25+,26+/m1/s1

> <INCHIKEY>
IEQCXFNWPAHHQR-YKLSGRGUSA-N

> <BEILSTEIN_REGISTRY_NUMBER>
1417459

> <CAS_REGISTRY_NUMBER>
13007-32-4

> <REAXYS_REGISTRY_NUMBER>
1417459

> <CHEMIDPLUS>
13007-32-4

> <KEGG_GLYCAN_ACCESSION>
G00536

> <PUBMED_CITATION>
11425797; 12005061; 12354382; 12950254; 15158661; 19913595; 2776132; 3274083; 6083447; 6194884; 7574700; 9057972

$$$$

Marvin  09091015422D          

 33 35  0  0  1  0            999 V2000
   11.5479   -3.2965    0.0000 C   0  0  0  0  0  0  0  0  0  0  0  0
   11.5479   -4.1215    0.0000 C   0  0  1  0  0  0  0  0  0  0  0  0
   10.8334   -2.8840    0.0000 O   0  0  0  0  0  0  0  0  0  0  0  0
   10.8334   -4.5340    0.0000 C   0  0  2  0  0  0  0  0  0  0  0  0
   10.1190   -3.2965    0.0000 C   0  0  1  0  0  0  0  0  0  0  0  0
   10.1190   -4.1215    0.0000 C   0  0  2  0  0  0  0  0  0  0  0  0
   12.2624   -2.8840    0.0000 O   0  0  0  0  0  0  0  0  0  0  0  0
   12.2624   -4.5340    0.0000 O   0  0  0  0  0  0  0  0  0  0  0  0
   10.8334   -5.3589    0.0000 O   0  0  0  0  0  0  0  0  0  0  0  0
    9.4045   -4.5340    0.0000 O   0  0  0  0  0  0  0  0  0  0  0  0
    9.4045   -2.8840    0.0000 C   0  0  0  0  0  0  0  0  0  0  0  0
    8.6900   -3.2965    0.0000 O   0  0  0  0  0  0  0  0  0  0  0  0
   10.1190   -5.7714    0.0000 C   0  0  2  0  0  0  0  0  0  0  0  0
   10.1190   -6.5964    0.0000 C   0  0  1  0  0  0  0  0  0  0  0  0
    9.4044   -5.3589    0.0000 O   0  0  0  0  0  0  0  0  0  0  0  0
    9.4044   -7.0088    0.0000 C   0  0  2  0  0  0  0  0  0  0  0  0
    8.6900   -5.7714    0.0000 C   0  0  1  0  0  0  0  0  0  0  0  0
    8.6900   -6.5964    0.0000 C   0  0  2  0  0  0  0  0  0  0  0  0
   10.8334   -7.0088    0.0000 O   0  0  0  0  0  0  0  0  0  0  0  0
    9.4044   -7.8338    0.0000 O   0  0  0  0  0  0  0  0  0  0  0  0
    7.9756   -7.0088    0.0000 O   0  0  0  0  0  0  0  0  0  0  0  0
    7.9756   -5.3589    0.0000 C   0  0  0  0  0  0  0  0  0  0  0  0
    7.2611   -5.7714    0.0000 O   0  0  0  0  0  0  0  0  0  0  0  0
   12.9768   -5.7714    0.0000 O   0  0  0  0  0  0  0  0  0  0  0  0
   13.6912   -6.1839    0.0000 C   0  0  2  0  0  0  0  0  0  0  0  0
   12.9768   -4.9464    0.0000 C   0  0  2  0  0  0  0  0  0  0  0  0
   13.6912   -4.5339    0.0000 C   0  0  2  0  0  0  0  0  0  0  0  0
   14.4057   -4.9465    0.0000 C   0  0  1  0  0  0  0  0  0  0  0  0
   14.4057   -5.7715    0.0000 C   0  0  2  0  0  0  0  0  0  0  0  0
   13.6913   -3.7090    0.0000 O   0  0  0  0  0  0  0  0  0  0  0  0
   15.1201   -4.5340    0.0000 O   0  0  0  0  0  0  0  0  0  0  0  0
   15.1201   -6.1839    0.0000 O   0  0  0  0  0  0  0  0  0  0  0  0
   13.6912   -7.0089    0.0000 C   0  0  0  0  0  0  0  0  0  0  0  0
  1  2  1  0  0  0  0
  1  3  1  0  0  0  0
  2  4  1  0  0  0  0
  3  5  1  0  0  0  0
  4  6  1  0  0  0  0
  5  6  1  0  0  0  0
  1  7  1  0  0  0  0
  2  8  1  6  0  0  0
  4  9  1  1  0  0  0
  6 10  1  1  0  0  0
  5 11  1  1  0  0  0
 12 11  1  0  0  0  0
 13 14  1  0  0  0  0
 13 15  1  0  0  0  0
 14 16  1  0  0  0  0
 15 17  1  0  0  0  0
 16 18  1  0  0  0  0
 17 18  1  0  0  0  0
 13  9  1  6  0  0  0
 14 19  1  6  0  0  0
 16 20  1  1  0  0  0
 18 21  1  1  0  0  0
 17 22  1  1  0  0  0
 23 22  1  0  0  0  0
 25 24  1  0  0  0  0
 26 24  1  0  0  0  0
 26  8  1  1  0  0  0
 26 27  1  0  0  0  0
 27 30  1  1  0  0  0
 27 28  1  0  0  0  0
 28 31  1  6  0  0  0
 28 29  1  0  0  0  0
 29 25  1  0  0  0  0
 29 32  1  6  0  0  0
 25 33  1  6  0  0  0
M  END
> <ID>
CHEBI:60243

> <NAME>
alpha-L-Fucp-(1->2)-[alpha-D-Galp-(1->3)]-D-Galp

> <DEFINITION>
An L-Fucp-(1→2)-[D-Galp-(1→3)]-D-Galp in which the both the L-fucosyl group at position 2 and the D-galactosyl groups at position 3 have α- configuration.

> <STAR>
3

> <SECONDARY_ID>
CHEBI:62108

> <SYNONYM>
Galalpha1,3(Fucalpha1,2)Gal; Gal-alpha1,3(Fuc-alpha1,2)Gal; Btri; B-tri; alpha-L-fucosyl-(1->2)-[alpha-D-galactosyl-(1->3)]-D-galactose; alpha-L-fucopyranosyl-(1->2)-[alpha-D-galactopyranosyl-(1->3)]-D-galactopyranose; alpha-L-Fuc-(1->2)-[alpha-D-Gal-(1->3)]-D-Gal; alpha-D-Galp-(1->3)-[alpha-L-Fucp-(1->2)]-D-Galp; alpha-D-galactosyl-(1->3)-[alpha-L-fucosyl-(1->2)]-D-galactose; alpha-D-Gal-(1->3)-[alpha-L-Fuc-(1->2)]-D-Gal; 6-deoxy-alpha-L-galactopyranosyl-(1->2)-[alpha-D-galactopyranosyl-(1->3)]-D-galactopyranose

> <IUPAC_NAME>
alpha-L-fucopyranosyl-(1->2)-[alpha-D-galactopyranosyl-(1->3)]-D-galactopyranose

> <FORMULA>
C18H32O15

> <MASS>
488.43770

> <MONOISOTOPIC_MASS>
488.17412

> <CHARGE>
0

> <SMILES>
C[C@@H]1O[C@@H](O[C@H]2C(O)O[C@H](CO)[C@H](O)[C@@H]2O[C@H]2O[C@H](CO)[C@H](O)[C@H](O)[C@H]2O)[C@@H](O)[C@H](O)[C@@H]1O

> <INCHI>
InChI=1S/C18H32O15/c1-4-7(21)10(24)12(26)17(29-4)33-15-14(9(23)6(3-20)30-16(15)28)32-18-13(27)11(25)8(22)5(2-19)31-18/h4-28H,2-3H2,1H3/t4-,5+,6+,7+,8-,9-,10+,11-,12-,13+,14-,15+,16?,17-,18+/m0/s1

> <INCHIKEY>
XNBZPOHDTUWNMW-OUUCXATCSA-N

> <BEILSTEIN_REGISTRY_NUMBER>
4828138

> <REAXYS_REGISTRY_NUMBER>
4828138

> <PUBMED_CITATION>
19913595; 7688662; 17991151

$$$$

Marvin  09091016432D          

 26 27  0  0  1  0            999 V2000
   10.9309   -4.6112    0.0000 C   0  0  0  0  0  0  0  0  0  0  0  0
   10.9309   -5.4362    0.0000 C   0  0  1  0  0  0  0  0  0  0  0  0
   10.2164   -4.1987    0.0000 O   0  0  0  0  0  0  0  0  0  0  0  0
   10.2164   -5.8486    0.0000 C   0  0  2  0  0  0  0  0  0  0  0  0
    9.5019   -4.6112    0.0000 C   0  0  1  0  0  0  0  0  0  0  0  0
    9.5019   -5.4362    0.0000 C   0  0  2  0  0  0  0  0  0  0  0  0
   11.6454   -4.1987    0.0000 O   0  0  0  0  0  0  0  0  0  0  0  0
   11.6454   -5.8486    0.0000 O   0  0  0  0  0  0  0  0  0  0  0  0
   10.2164   -6.6736    0.0000 O   0  0  0  0  0  0  0  0  0  0  0  0
    8.7874   -5.8486    0.0000 O   0  0  0  0  0  0  0  0  0  0  0  0
    8.7874   -4.1987    0.0000 C   0  0  0  0  0  0  0  0  0  0  0  0
    8.0730   -4.6112    0.0000 O   0  0  0  0  0  0  0  0  0  0  0  0
    9.5020   -7.0861    0.0000 C   0  0  2  0  0  0  0  0  0  0  0  0
    9.5020   -7.9111    0.0000 C   0  0  1  0  0  0  0  0  0  0  0  0
    8.7874   -6.6737    0.0000 O   0  0  0  0  0  0  0  0  0  0  0  0
    8.7875   -8.3236    0.0000 C   0  0  2  0  0  0  0  0  0  0  0  0
    8.0729   -7.0863    0.0000 C   0  0  1  0  0  0  0  0  0  0  0  0
    8.0730   -7.9111    0.0000 C   0  0  2  0  0  0  0  0  0  0  0  0
   10.2165   -8.3236    0.0000 N   0  0  0  0  0  0  0  0  0  0  0  0
    8.7873   -9.1486    0.0000 O   0  0  0  0  0  0  0  0  0  0  0  0
    7.3586   -8.3236    0.0000 O   0  0  0  0  0  0  0  0  0  0  0  0
    7.3584   -6.6738    0.0000 C   0  0  0  0  0  0  0  0  0  0  0  0
    6.6440   -7.0862    0.0000 O   0  0  0  0  0  0  0  0  0  0  0  0
   10.2165   -9.1485    0.0000 C   0  0  0  0  0  0  0  0  0  0  0  0
   10.9309   -9.5610    0.0000 O   0  0  0  0  0  0  0  0  0  0  0  0
    9.5020   -9.5611    0.0000 C   0  0  0  0  0  0  0  0  0  0  0  0
  1  2  1  0  0  0  0
  1  3  1  0  0  0  0
  2  4  1  0  0  0  0
  3  5  1  0  0  0  0
  4  6  1  0  0  0  0
  5  6  1  0  0  0  0
  1  7  1  0  0  0  0
  2  8  1  6  0  0  0
  4  9  1  1  0  0  0
  6 10  1  1  0  0  0
  5 11  1  1  0  0  0
 12 11  1  0  0  0  0
 13 14  1  0  0  0  0
 13 15  1  0  0  0  0
 14 16  1  0  0  0  0
 15 17  1  0  0  0  0
 16 18  1  0  0  0  0
 17 18  1  0  0  0  0
 14 19  1  6  0  0  0
 16 20  1  1  0  0  0
 18 21  1  1  0  0  0
 17 22  1  1  0  0  0
 23 22  1  0  0  0  0
 25 24  2  0  0  0  0
 26 24  1  0  0  0  0
 19 24  1  0  0  0  0
 13  9  1  6  0  0  0
M  END
> <ID>
CHEBI:60246

> <NAME>
alpha-D-GalNAc-(1->3)-D-Gal

> <DEFINITION>
A glycosylgalactose derivative consisting of D-galactose having an α-D-N-acetylgalactosaminyl residue attached at the 3-position.

> <STAR>
3

> <SYNONYM>
GalNAcalpha1->3Gal; GalNAcalpha1-3Gal; GalNAc-alpha1,3-Gal; alpha-D-N-acetylgalactosaminyl-(1->3)-D-galactose; alpha-D-GalpNAc-(1->3)-D-Galp; Adi saccharide component; Adi saccharide; Adi; 3-O-(2-acetamido-2-deoxy-alpha-D-galactopyranosyl)-D-galactopyranose

> <IUPAC_NAME>
2-acetamido-2-deoxy-alpha-D-galactopyranosyl-(1->3)-D-galactopyranose

> <FORMULA>
C14H25NO11

> <MASS>
383.34840

> <MONOISOTOPIC_MASS>
383.14276

> <CHARGE>
0

> <SMILES>
CC(=O)N[C@@H]1[C@@H](O)[C@@H](O)[C@@H](CO)O[C@@H]1O[C@@H]1[C@@H](O)C(O)O[C@H](CO)[C@@H]1O

> <INCHI>
InChI=1S/C14H25NO11/c1-4(18)15-7-10(21)8(19)5(2-16)25-14(7)26-12-9(20)6(3-17)24-13(23)11(12)22/h5-14,16-17,19-23H,2-3H2,1H3,(H,15,18)/t5-,6-,7-,8+,9+,10-,11-,12+,13?,14-/m1/s1

> <INCHIKEY>
IXWNIYCPCRHGAE-DFZOHVKFSA-N

> <BEILSTEIN_REGISTRY_NUMBER>
1356094

> <REAXYS_REGISTRY_NUMBER>
1356094

> <PUBMED_CITATION>
15864747; 17991151; 19585575; 19913595

$$$$

Marvin  09211015272D          

 12 13  0  0  0  0            999 V2000
    0.1021    0.3945    0.0000 C   0  0  0  0  0  0  0  0  0  0  0  0
    0.1021   -0.4305    0.0000 C   0  0  0  0  0  0  0  0  0  0  0  0
   -0.6124    0.8070    0.0000 C   0  0  0  0  0  0  0  0  0  0  0  0
    0.8867    0.6494    0.0000 N   0  0  0  0  0  0  0  0  0  0  0  0
   -0.6124   -0.8430    0.0000 N   0  0  0  0  0  0  0  0  0  0  0  0
   -1.3269    0.3945    0.0000 N   0  0  0  0  0  0  0  0  0  0  0  0
   -0.6124    1.6320    0.0000 N   0  0  0  0  0  0  0  0  0  0  0  0
    1.3716   -0.0180    0.0000 C   0  0  0  0  0  0  0  0  0  0  0  0
   -1.3269   -0.4305    0.0000 C   0  0  0  0  0  0  0  0  0  0  0  0
    0.8867   -0.6854    0.0000 N   0  0  0  0  0  0  0  0  0  0  0  0
    0.1021    2.0445    0.0000 C   0  0  0  0  0  0  0  0  0  0  0  0
   -1.3269    2.0445    0.0000 C   0  0  0  0  0  0  0  0  0  0  0  0
  1  2  1  0  0  0  0
  1  3  2  0  0  0  0
  1  4  1  0  0  0  0
  2  5  2  0  0  0  0
  2 10  1  0  0  0  0
  3  6  1  0  0  0  0
  3  7  1  0  0  0  0
  4  8  2  0  0  0  0
  5  9  1  0  0  0  0
 10  8  1  0  0  0  0
  6  9  2  0  0  0  0
  7 11  1  0  0  0  0
  7 12  1  0  0  0  0
M  END
> <ID>
CHEBI:60281

> <NAME>
N(6),N(6)-dimethyladenine

> <DEFINITION>
A tertiary amine that is adenine substituted at N-6 by geminal methyl groups.

> <STAR>
3

> <SYNONYM>
N(6)-dimethyladenine; N,N-Dimethyladenine; N,N-Dimethyl-6-aminopurine; N,N-dimethyl-1H-purin-6-amine; N(6),N(6)-Dimethyladenine; 6-Dimethylaminopurine; 6-Dimethyladenine; 6-(Dimethylamino)purine

> <IUPAC_NAME>
N,N-dimethyl-9H-purin-6-amine

> <FORMULA>
C7H9N5

> <MASS>
163.17990

> <MONOISOTOPIC_MASS>
163.08580

> <CHARGE>
0

> <SMILES>
CN(C)c1ncnc2[nH]cnc12

> <INCHI>
InChI=1S/C7H9N5/c1-12(2)7-5-6(9-3-8-5)10-4-11-7/h3-4H,1-2H3,(H,8,9,10,11)

> <INCHIKEY>
BVIAOQMSVZHOJM-UHFFFAOYSA-N

> <BEILSTEIN_REGISTRY_NUMBER>
611068

> <CAS_REGISTRY_NUMBER>
938-55-6

> <CHEMIDPLUS>
938-55-6

> <NIST_CHEMISTRY_WEBBOOK>
938-55-6

> <PUBMED_CITATION>
12112604; 19569655; 238583; 25730023; 323854

$$$$

Ketcher 10181715462D 1   1.00000     0.00000     0

 18 17  0     1  0            999 V2000
   -2.1651   -0.2501    0.0000 C   0  0  0  0  0  0  0  0  0  0  0  0
   -1.2990    0.2499    0.0000 C   0  0  0  0  0  0  0  0  0  0  0  0
    1.2990   -0.2499    0.0000 C   0  0  0  0  0  0  0  0  0  0  0  0
    0.4330    0.2501    0.0000 C   0  0  0  0  0  0  0  0  0  0  0  0
   -0.4330   -0.2501    0.0000 C   0  0  0  0  0  0  0  0  0  0  0  0
    2.1651    0.2501    0.0000 C   0  0  0  0  0  0  0  0  0  0  0  0
    1.2990   -1.2501    0.0000 O   0  0  0  0  0  0  0  0  0  0  0  0
    0.4330    1.2500    0.0000 O   0  0  0  0  0  0  0  0  0  0  0  0
   -0.4330   -1.2501    0.0000 O   0  0  0  0  0  0  0  0  0  0  0  0
   -1.2990    1.2500    0.0000 O   0  0  0  0  0  0  0  0  0  0  0  0
   -2.1651   -1.2500    0.0000 O   0  0  0  0  0  0  0  0  0  0  0  0
   -3.0311    0.2501    0.0000 O   0  0  0  0  0  0  0  0  0  0  0  0
    2.1651    1.2500    0.0000 O   0  0  0  0  0  0  0  0  0  0  0  0
    3.0311   -0.2501    0.0000 H   0  0  0  0  0  0  0  0  0  0  0  0
    0.9330    2.1160    0.0000 S   0  0  0  0  0  0  0  0  0  0  0  0
    1.7990    1.6160    0.0000 O   0  0  0  0  0  0  0  0  0  0  0  0
    0.0669    2.6160    0.0000 O   0  0  0  0  0  0  0  0  0  0  0  0
    1.4330    2.9820    0.0000 O   0  0  0  0  0  0  0  0  0  0  0  0
 11  1  2  0     0  0
 12  1  1  0     0  0
  1  2  1  0     0  0
  2 10  1  1     0  0
  3  7  1  6     0  0
  4  3  1  0     0  0
  4  8  1  6     0  0
  5  4  1  0     0  0
  2  5  1  0     0  0
  5  9  1  6     0  0
  3  6  1  0     0  0
 14  6  1  0     0  0
  6 13  2  0     0  0
  8 15  1  0     0  0
 15 16  2  0     0  0
 15 17  2  0     0  0
 15 18  1  0     0  0
M  END
> <ID>
CHEBI:60288

> <NAME>
D-glucuronic acid 3-sulfate

> <DEFINITION>
A monosaccharide sulfate that is D-glucuronic acid esterified at O-3 by sulfuric acid.

> <STAR>
3

> <SYNONYM>
D-glucuronic acid 3-(hydrogen sulfate); 3-Sulfoglucuronic acid

> <IUPAC_NAME>
3-O-sulfo-D-glucuronic acid

> <FORMULA>
C6H10O10S

> <MASS>
274.204

> <MONOISOTOPIC_MASS>
273.99947

> <CHARGE>
0

> <SMILES>
C(=O)(O)[C@@H](O)[C@H]([C@@H]([C@@H](O)C([H])=O)OS(=O)(=O)O)O

> <INCHI>
InChI=1S/C6H10O10S/c7-1-2(8)5(16-17(13,14)15)3(9)4(10)6(11)12/h1-5,8-10H,(H,11,12)(H,13,14,15)/t2-,3+,4-,5+/m0/s1

> <INCHIKEY>
DLJXFFATZRGSBR-SKNVOMKLSA-N

> <CAS_REGISTRY_NUMBER>
110231-93-1

> <REAXYS_REGISTRY_NUMBER>
30840619

> <CHEMIDPLUS>
110231-93-1

> <PUBMED_CITATION>
14704908

$$$$

Marvin  09271011222D          

 29 32  0  0  1  0            999 V2000
    0.0000   -0.8250    0.0000 C   0  0  0  0  0  0  0  0  0  0  0  0
   -0.7145   -0.4125    0.0000 C   0  0  0  0  0  0  0  0  0  0  0  0
    0.7145   -0.4125    0.0000 C   0  0  0  0  0  0  0  0  0  0  0  0
   -0.7145    0.4125    0.0000 C   0  0  1  0  0  0  0  0  0  0  0  0
    0.0000    0.8250    0.0000 C   0  0  2  0  0  0  0  0  0  0  0  0
    0.7145    0.4125    0.0000 C   0  0  2  0  0  0  0  0  0  0  0  0
   -1.4290    0.8250    0.0000 C   0  0  0  0  0  0  0  0  0  0  0  0
   -2.1434    0.4125    0.0000 C   0  0  0  0  0  0  0  0  0  0  0  0
   -1.4290   -0.8250    0.0000 C   0  0  0  0  0  0  0  0  0  0  0  0
    0.0000    1.6500    0.0000 C   0  0  0  0  0  0  0  0  0  0  0  0
    0.7145    2.0625    0.0000 C   0  0  0  0  0  0  0  0  0  0  0  0
    2.2135    0.5701    0.0000 C   0  0  0  0  0  0  0  0  0  0  0  0
    2.6985    1.2375    0.0000 C   0  0  0  0  0  0  0  0  0  0  0  0
    0.0000    0.0000    0.0000 H   0  0  0  0  0  0  0  0  0  0  0  0
    0.7144    1.2375    0.0000 H   0  0  0  0  0  0  0  0  0  0  0  0
    1.4289    0.8250    0.0000 C   0  0  2  0  0  0  0  0  0  0  0  0
    1.4289    1.6500    0.0000 C   0  0  2  0  0  0  0  0  0  0  0  0
    1.4289    0.0000    0.0000 H   0  0  0  0  0  0  0  0  0  0  0  0
   -0.7145    1.2375    0.0000 C   0  0  0  0  0  0  0  0  0  0  0  0
    1.4290    2.4750    0.0000 C   0  0  0  0  0  0  0  0  0  0  0  0
    2.2135    1.9049    0.0000 C   0  0  1  0  0  0  0  0  0  0  0  0
    2.4685    2.6895    0.0000 O   0  0  0  0  0  0  0  0  0  0  0  0
   -2.1434   -0.4125    0.0000 C   0  0  0  0  0  0  0  0  0  0  0  0
   -2.8579   -0.8250    0.0000 N   0  0  0  0  0  0  0  0  0  0  0  0
   -3.5723   -0.4125    0.0000 O   0  0  0  0  0  0  0  0  0  0  0  0
   -4.2868   -0.8250    0.0000 C   0  0  0  0  0  0  0  0  0  0  0  0
   -5.0013   -0.4125    0.0000 C   0  0  0  0  0  0  0  0  0  0  0  0
   -5.0013    0.4125    0.0000 O   0  0  0  0  0  0  0  0  0  0  0  0
   -5.7158   -0.8250    0.0000 O   0  0  0  0  0  0  0  0  0  0  0  0
  2  1  1  0  0  0  0
  2  9  2  0  0  0  0
  1  3  1  0  0  0  0
  4  2  1  0  0  0  0
  4  7  1  0  0  0  0
  5  4  1  0  0  0  0
  5 10  1  0  0  0  0
  5 14  1  6  0  0  0
  6  5  1  0  0  0  0
  6  3  1  0  0  0  0
 16  6  1  0  0  0  0
  6 15  1  1  0  0  0
  8  7  1  0  0  0  0
 23  8  1  0  0  0  0
 23  9  1  0  0  0  0
 10 11  1  0  0  0  0
 17 11  1  0  0  0  0
 16 12  1  0  0  0  0
 13 12  1  0  0  0  0
 13 21  1  0  0  0  0
 16 17  1  0  0  0  0
 16 18  1  6  0  0  0
 17 21  1  0  0  0  0
 21 22  1  1  0  0  0
 23 24  2  0  0  0  0
  4 19  1  1  0  0  0
 17 20  1  1  0  0  0
 24 25  1  0  0  0  0
 25 26  1  0  0  0  0
 26 27  1  0  0  0  0
 27 28  2  0  0  0  0
 27 29  1  0  0  0  0
M  END
> <ID>
CHEBI:60293

> <NAME>
testosterone (E)-3-(O-carboxymethyl)oxime

> <DEFINITION>
The E (anti) isomer of testosterone 3-(O-carboxymethyl)oxime.

> <STAR>
3

> <SYNONYM>
testosterone (anti)-3-(O-carboxymethyl)oxime; anti-testosterone-3-CMO; (E)-testosterone-3-CMO

> <IUPAC_NAME>
({[(3E)-17beta-hydroxyandrost-4-en-3-ylidene]amino}oxy)acetic acid

> <FORMULA>
C21H31NO4

> <MASS>
361.47510

> <MONOISOTOPIC_MASS>
361.22531

> <CHARGE>
0

> <SMILES>
[H][C@@]12CCC3=C\C(CC[C@]3(C)[C@@]1([H])CC[C@]1(C)[C@@H](O)CC[C@@]21[H])=N\OCC(O)=O

> <INCHI>
InChI=1S/C21H31NO4/c1-20-9-7-14(22-26-12-19(24)25)11-13(20)3-4-15-16-5-6-18(23)21(16,2)10-8-17(15)20/h11,15-18,23H,3-10,12H2,1-2H3,(H,24,25)/b22-14+/t15-,16-,17-,18-,20-,21-/m0/s1

> <INCHIKEY>
VDYLVWGBLQNNAW-UVTKPVMCSA-N

> <REAXYS_REGISTRY_NUMBER>
2227101

> <PUBMED_CITATION>
10400384

$$$$

Marvin  09271012072D          

 29 32  0  0  1  0            999 V2000
    0.0000   -0.8250    0.0000 C   0  0  0  0  0  0  0  0  0  0  0  0
   -0.7145   -0.4125    0.0000 C   0  0  0  0  0  0  0  0  0  0  0  0
    0.7145   -0.4125    0.0000 C   0  0  0  0  0  0  0  0  0  0  0  0
   -0.7145    0.4125    0.0000 C   0  0  1  0  0  0  0  0  0  0  0  0
    0.0000    0.8250    0.0000 C   0  0  2  0  0  0  0  0  0  0  0  0
    0.7145    0.4125    0.0000 C   0  0  2  0  0  0  0  0  0  0  0  0
   -1.4290    0.8250    0.0000 C   0  0  0  0  0  0  0  0  0  0  0  0
   -2.1434    0.4125    0.0000 C   0  0  0  0  0  0  0  0  0  0  0  0
   -1.4290   -0.8250    0.0000 C   0  0  0  0  0  0  0  0  0  0  0  0
    0.0000    1.6500    0.0000 C   0  0  0  0  0  0  0  0  0  0  0  0
    0.7145    2.0625    0.0000 C   0  0  0  0  0  0  0  0  0  0  0  0
    2.2135    0.5701    0.0000 C   0  0  0  0  0  0  0  0  0  0  0  0
    2.6985    1.2375    0.0000 C   0  0  0  0  0  0  0  0  0  0  0  0
    0.0000    0.0000    0.0000 H   0  0  0  0  0  0  0  0  0  0  0  0
    0.7144    1.2375    0.0000 H   0  0  0  0  0  0  0  0  0  0  0  0
    1.4289    0.8250    0.0000 C   0  0  2  0  0  0  0  0  0  0  0  0
    1.4289    1.6500    0.0000 C   0  0  2  0  0  0  0  0  0  0  0  0
    1.4289    0.0000    0.0000 H   0  0  0  0  0  0  0  0  0  0  0  0
   -0.7145    1.2375    0.0000 C   0  0  0  0  0  0  0  0  0  0  0  0
    1.4290    2.4750    0.0000 C   0  0  0  0  0  0  0  0  0  0  0  0
    2.2135    1.9049    0.0000 C   0  0  1  0  0  0  0  0  0  0  0  0
    2.4685    2.6895    0.0000 O   0  0  0  0  0  0  0  0  0  0  0  0
   -2.1434   -0.4125    0.0000 C   0  0  0  0  0  0  0  0  0  0  0  0
   -2.8579   -0.8250    0.0000 N   0  0  0  0  0  0  0  0  0  0  0  0
   -2.8579   -1.6500    0.0000 O   0  0  0  0  0  0  0  0  0  0  0  0
   -3.5724   -2.0625    0.0000 C   0  0  0  0  0  0  0  0  0  0  0  0
   -4.2868   -1.6500    0.0000 C   0  0  0  0  0  0  0  0  0  0  0  0
   -4.2868   -0.8250    0.0000 O   0  0  0  0  0  0  0  0  0  0  0  0
   -5.0013   -2.0625    0.0000 O   0  0  0  0  0  0  0  0  0  0  0  0
  2  1  1  0  0  0  0
  2  9  2  0  0  0  0
  1  3  1  0  0  0  0
  4  2  1  0  0  0  0
  4  7  1  0  0  0  0
  5  4  1  0  0  0  0
  5 10  1  0  0  0  0
  5 14  1  6  0  0  0
  6  5  1  0  0  0  0
  6  3  1  0  0  0  0
 16  6  1  0  0  0  0
  6 15  1  1  0  0  0
  8  7  1  0  0  0  0
 23  8  1  0  0  0  0
 23  9  1  0  0  0  0
 10 11  1  0  0  0  0
 17 11  1  0  0  0  0
 16 12  1  0  0  0  0
 13 12  1  0  0  0  0
 13 21  1  0  0  0  0
 16 17  1  0  0  0  0
 16 18  1  6  0  0  0
 17 21  1  0  0  0  0
 21 22  1  1  0  0  0
 23 24  2  0  0  0  0
  4 19  1  1  0  0  0
 17 20  1  1  0  0  0
 24 25  1  0  0  0  0
 25 26  1  0  0  0  0
 26 27  1  0  0  0  0
 27 28  2  0  0  0  0
 27 29  1  0  0  0  0
M  END
> <ID>
CHEBI:60294

> <NAME>
testosterone (Z)-3-(O-carboxymethyl)oxime

> <DEFINITION>
The Z (anti) isomer of testosterone 3-(O-carboxymethyl)oxime.

> <STAR>
3

> <SYNONYM>
syn-testosterone-3-CMO; (Z)-testosterone-3-CMO

> <IUPAC_NAME>
({[(3Z)-17beta-hydroxyandrost-4-en-3-ylidene]amino}oxy)acetic acid

> <FORMULA>
C21H31NO4

> <MASS>
361.47510

> <MONOISOTOPIC_MASS>
361.22531

> <CHARGE>
0

> <SMILES>
[H][C@@]12CCC3=C\C(CC[C@]3(C)[C@@]1([H])CC[C@]1(C)[C@@H](O)CC[C@@]21[H])=N/OCC(O)=O

> <INCHI>
InChI=1S/C21H31NO4/c1-20-9-7-14(22-26-12-19(24)25)11-13(20)3-4-15-16-5-6-18(23)21(16,2)10-8-17(15)20/h11,15-18,23H,3-10,12H2,1-2H3,(H,24,25)/b22-14-/t15-,16-,17-,18-,20-,21-/m0/s1

> <INCHIKEY>
VDYLVWGBLQNNAW-VLXQCQHTSA-N

> <BEILSTEIN_REGISTRY_NUMBER>
2422114

> <REAXYS_REGISTRY_NUMBER>
2422114

> <PUBMED_CITATION>
10400384

$$$$

Marvin  09241018062D          

 10  9  0  0  0  0            999 V2000
    8.8691   -3.6839    0.0000 C   0  0  0  0  0  0  0  0  0  0  0  0
    8.1543   -4.0905    0.0000 C   0  0  0  0  0  0  0  0  0  0  0  0
    7.4396   -4.5028    0.0000 C   0  0  0  0  0  0  0  0  0  0  0  0
    6.7305   -4.9151    0.0000 C   0  0  0  0  0  0  0  0  0  0  0  0
    6.0215   -4.5028    0.0000 C   0  0  0  0  0  0  0  0  0  0  0  0
    5.3067   -4.9151    0.0000 C   0  0  0  0  0  0  0  0  0  0  0  0
    4.5919   -4.5028    0.0000 C   0  0  0  0  0  0  0  0  0  0  0  0
    3.8773   -4.9151    0.0000 C   0  0  0  0  0  0  0  0  0  0  0  0
    8.8691   -2.8593    0.0000 O   0  0  0  0  0  0  0  0  0  0  0  0
    9.5837   -4.0905    0.0000 O   0  0  0  0  0  0  0  0  0  0  0  0
  2  1  1  0  0  0  0
 10  1  1  0  0  0  0
  9  1  2  0  0  0  0
  3  2  3  0  0  0  0
  4  3  1  0  0  0  0
  5  4  1  0  0  0  0
  6  5  1  0  0  0  0
  7  6  1  0  0  0  0
  8  7  1  0  0  0  0
M  END
> <ID>
CHEBI:60295

> <NAME>
2-octynoic acid

> <DEFINITION>
An acetylenic fatty acid that is octanoic acid (caprylic acid) which has been doubly dehydrogenated at positions 2 and 3 to give the corresponding alkynoic acid. It is widely used in perfumes, lipstick, and many common food flavourings.

> <STAR>
3

> <SYNONYM>
2-octyn-1-oic acid

> <IUPAC_NAME>
oct-2-ynoic acid

> <FORMULA>
C8H12O2

> <MASS>
140.17970

> <MONOISOTOPIC_MASS>
140.08373

> <CHARGE>
0

> <SMILES>
CCCCCC#CC(O)=O

> <INCHI>
InChI=1S/C8H12O2/c1-2-3-4-5-6-7-8(9)10/h2-5H2,1H3,(H,9,10)

> <INCHIKEY>
BQDKCWCMDBMLEH-UHFFFAOYSA-N

> <CAS_REGISTRY_NUMBER>
5663-96-7

> <REAXYS_REGISTRY_NUMBER>
1751225

> <CHEMIDPLUS>
5663-96-7

> <NIST_CHEMISTRY_WEBBOOK>
5663-96-7

> <PUBMED_CITATION>
10381140; 15845458; 18563844; 23741428

$$$$

Marvin  09271013432D          

 29 30  0  0  1  0            999 V2000
   18.4369   -5.2944    0.0000 C   0  0  0  0  0  0  0  0  0  0  0  0
   18.4369   -6.1194    0.0000 C   0  0  1  0  0  0  0  0  0  0  0  0
   17.7223   -4.8819    0.0000 O   0  0  0  0  0  0  0  0  0  0  0  0
   17.7223   -6.5318    0.0000 C   0  0  2  0  0  0  0  0  0  0  0  0
   17.0079   -5.2944    0.0000 C   0  0  1  0  0  0  0  0  0  0  0  0
   17.0079   -6.1194    0.0000 C   0  0  2  0  0  0  0  0  0  0  0  0
   19.1513   -4.8819    0.0000 O   0  0  0  0  0  0  0  0  0  0  0  0
   19.1513   -6.5318    0.0000 N   0  0  0  0  0  0  0  0  0  0  0  0
   17.7223   -7.3567    0.0000 O   0  0  0  0  0  0  0  0  0  0  0  0
   16.2934   -6.5318    0.0000 O   0  0  0  0  0  0  0  0  0  0  0  0
   16.2934   -4.8819    0.0000 C   0  0  0  0  0  0  0  0  0  0  0  0
   15.5790   -5.2944    0.0000 O   0  0  0  0  0  0  0  0  0  0  0  0
   17.0080   -7.7692    0.0000 C   0  0  2  0  0  0  0  0  0  0  0  0
   17.0080   -8.5942    0.0000 C   0  0  1  0  0  0  0  0  0  0  0  0
   16.2934   -7.3568    0.0000 O   0  0  0  0  0  0  0  0  0  0  0  0
   16.2935   -9.0067    0.0000 C   0  0  2  0  0  0  0  0  0  0  0  0
   15.5789   -7.7694    0.0000 C   0  0  1  0  0  0  0  0  0  0  0  0
   15.5790   -8.5942    0.0000 C   0  0  2  0  0  0  0  0  0  0  0  0
   17.7225   -9.0067    0.0000 N   0  0  0  0  0  0  0  0  0  0  0  0
   16.2933   -9.8317    0.0000 O   0  0  0  0  0  0  0  0  0  0  0  0
   14.8646   -9.0067    0.0000 O   0  0  0  0  0  0  0  0  0  0  0  0
   14.8644   -7.3570    0.0000 C   0  0  0  0  0  0  0  0  0  0  0  0
   14.1501   -7.7693    0.0000 O   0  0  0  0  0  0  0  0  0  0  0  0
   17.7225   -9.8316    0.0000 C   0  0  0  0  0  0  0  0  0  0  0  0
   18.4369  -10.2440    0.0000 O   0  0  0  0  0  0  0  0  0  0  0  0
   17.0080  -10.2442    0.0000 C   0  0  0  0  0  0  0  0  0  0  0  0
   19.1515   -7.3568    0.0000 C   0  0  0  0  0  0  0  0  0  0  0  0
   19.8659   -7.7692    0.0000 O   0  0  0  0  0  0  0  0  0  0  0  0
   18.4370   -7.7693    0.0000 C   0  0  0  0  0  0  0  0  0  0  0  0
  1  2  1  0  0  0  0
  1  3  1  0  0  0  0
  2  4  1  0  0  0  0
  3  5  1  0  0  0  0
  4  6  1  0  0  0  0
  5  6  1  0  0  0  0
  1  7  1  0  0  0  0
  2  8  1  6  0  0  0
  4  9  1  1  0  0  0
  6 10  1  1  0  0  0
  5 11  1  1  0  0  0
 12 11  1  0  0  0  0
 13 14  1  0  0  0  0
 13 15  1  0  0  0  0
 14 16  1  0  0  0  0
 15 17  1  0  0  0  0
 16 18  1  0  0  0  0
 17 18  1  0  0  0  0
 14 19  1  6  0  0  0
 16 20  1  1  0  0  0
 18 21  1  1  0  0  0
 17 22  1  1  0  0  0
 23 22  1  0  0  0  0
 25 24  2  0  0  0  0
 26 24  1  0  0  0  0
 19 24  1  0  0  0  0
 13  9  1  6  0  0  0
 28 27  2  0  0  0  0
 29 27  1  0  0  0  0
  8 27  1  0  0  0  0
M  END
> <ID>
CHEBI:60300

> <NAME>
alpha-D-GalpNAc-(1->3)-D-GalpNAc

> <DEFINITION>
A D-GalpNAc-(1→3)-D-GalpNAc in which the 2-acetamidogalactosyl group (attached to position 3 of the 2-acetamidogalactose moiety) has α- configuration.

> <STAR>
3

> <SYNONYM>
GalNAcalpha1->3GalNAc; GalNAcalpha1-3GalNAc; alpha-D-N-acetylgalactosaminyl-(1->3)-D-N-acetylgalactosamine; alpha-D-GalNAc-(1->3)-D-GalNAc; 2-acetamido-3-O-(2-acetamido-2-deoxy-alpha-D-galactopyranosyl)-2-deoxy-D-galactopyranose; (GalNAc)2

> <IUPAC_NAME>
2-acetamido-2-deoxy-alpha-D-galactopyranosyl-(1->3)-2-acetamido-2-deoxy-D-galactopyranose

> <FORMULA>
C16H28N2O11

> <MASS>
424.40030

> <MONOISOTOPIC_MASS>
424.16931

> <CHARGE>
0

> <SMILES>
CC(=O)N[C@H]1C(O)O[C@H](CO)[C@H](O)[C@@H]1O[C@H]1O[C@H](CO)[C@H](O)[C@H](O)[C@H]1NC(C)=O

> <INCHI>
InChI=1S/C16H28N2O11/c1-5(21)17-9-13(25)11(23)7(3-19)28-16(9)29-14-10(18-6(2)22)15(26)27-8(4-20)12(14)24/h7-16,19-20,23-26H,3-4H2,1-2H3,(H,17,21)(H,18,22)/t7-,8-,9-,10-,11+,12+,13-,14-,15?,16-/m1/s1

> <INCHIKEY>
FJGXDMQHNYEUHI-GGIAXZSGSA-N

> <BEILSTEIN_REGISTRY_NUMBER>
1443238

> <REAXYS_REGISTRY_NUMBER>
1443238

> <KEGG_GLYCAN_ACCESSION>
G01033

> <PUBMED_CITATION>
15864747; 17991151; 19913595

$$$$

Marvin  09271015212D          

 36 40  0  0  1  0            999 V2000
   13.7196  -15.8128    0.0000 C   0  0  0  0  0  0  0  0  0  0  0  0
   13.0052  -15.4003    0.0000 C   0  0  0  0  0  0  0  0  0  0  0  0
   14.4341  -15.4003    0.0000 C   0  0  0  0  0  0  0  0  0  0  0  0
   13.0052  -14.5753    0.0000 C   0  0  1  0  0  0  0  0  0  0  0  0
   13.7196  -14.1629    0.0000 C   0  0  2  0  0  0  0  0  0  0  0  0
   14.4341  -14.5753    0.0000 C   0  0  2  0  0  0  0  0  0  0  0  0
   12.2907  -14.1629    0.0000 C   0  0  0  0  0  0  0  0  0  0  0  0
   11.5763  -14.5753    0.0000 C   0  0  0  0  0  0  0  0  0  0  0  0
   12.2907  -15.8128    0.0000 C   0  0  0  0  0  0  0  0  0  0  0  0
   13.7196  -13.3379    0.0000 C   0  0  0  0  0  0  0  0  0  0  0  0
   14.4341  -12.9254    0.0000 C   0  0  0  0  0  0  0  0  0  0  0  0
   15.9331  -14.4178    0.0000 C   0  0  0  0  0  0  0  0  0  0  0  0
   16.4181  -13.7504    0.0000 C   0  0  0  0  0  0  0  0  0  0  0  0
   13.7196  -14.9878    0.0000 H   0  0  0  0  0  0  0  0  0  0  0  0
   14.4340  -13.7504    0.0000 H   0  0  0  0  0  0  0  0  0  0  0  0
   15.1485  -14.1629    0.0000 C   0  0  2  0  0  0  0  0  0  0  0  0
   15.1485  -13.3379    0.0000 C   0  0  2  0  0  0  0  0  0  0  0  0
   15.1485  -14.9878    0.0000 H   0  0  0  0  0  0  0  0  0  0  0  0
   13.0052  -13.7504    0.0000 C   0  0  0  0  0  0  0  0  0  0  0  0
   15.1486  -12.5129    0.0000 C   0  0  0  0  0  0  0  0  0  0  0  0
   15.9331  -13.0830    0.0000 C   0  0  1  0  0  0  0  0  0  0  0  0
   16.1881  -12.2984    0.0000 O   0  0  0  0  0  0  0  0  0  0  0  0
   11.5763  -15.4003    0.0000 C   0  0  0  0  0  0  0  0  0  0  0  0
   10.8618  -15.8128    0.0000 N   0  0  0  0  0  0  0  0  0  0  0  0
   10.1474  -15.4003    0.0000 O   0  0  0  0  0  0  0  0  0  0  0  0
    9.4329  -15.8128    0.0000 C   0  0  0  0  0  0  0  0  0  0  0  0
    8.7185  -15.4003    0.0000 C   0  0  0  0  0  0  0  0  0  0  0  0
    8.7185  -14.5753    0.0000 O   0  0  0  0  0  0  0  0  0  0  0  0
    8.0039  -15.8128    0.0000 N   0  0  0  0  0  0  0  0  0  0  0  0
    7.2895  -15.4003    0.0000 C   0  0  0  0  0  0  0  0  0  0  0  0
    6.5750  -15.8128    0.0000 C   0  0  0  0  0  0  0  0  0  0  0  0
    5.8605  -15.4003    0.0000 C   0  0  0  0  0  0  0  0  0  0  0  0
    4.5909  -14.9877    0.0000 N   0  0  0  0  0  0  0  0  0  0  0  0
    5.0760  -14.3203    0.0000 C   0  0  0  0  0  0  0  0  0  0  0  0
    5.0758  -15.6552    0.0000 C   0  0  0  0  0  0  0  0  0  0  0  0
    5.8605  -14.5753    0.0000 N   0  0  0  0  0  0  0  0  0  0  0  0
  2  1  1  0  0  0  0
  2  9  2  0  0  0  0
  1  3  1  0  0  0  0
  4  2  1  0  0  0  0
  4  7  1  0  0  0  0
  5  4  1  0  0  0  0
  5 10  1  0  0  0  0
  5 14  1  6  0  0  0
  6  5  1  0  0  0  0
  6  3  1  0  0  0  0
 16  6  1  0  0  0  0
  6 15  1  1  0  0  0
  8  7  1  0  0  0  0
 23  8  1  0  0  0  0
 23  9  1  0  0  0  0
 10 11  1  0  0  0  0
 17 11  1  0  0  0  0
 16 12  1  0  0  0  0
 13 12  1  0  0  0  0
 13 21  1  0  0  0  0
 16 17  1  0  0  0  0
 16 18  1  6  0  0  0
 17 21  1  0  0  0  0
 21 22  1  1  0  0  0
 23 24  2  0  0  0  0
  4 19  1  1  0  0  0
 17 20  1  1  0  0  0
 24 25  1  0  0  0  0
 25 26  1  0  0  0  0
 26 27  1  0  0  0  0
 27 28  2  0  0  0  0
 27 29  1  0  0  0  0
 29 30  1  0  0  0  0
 30 31  1  0  0  0  0
 31 32  1  0  0  0  0
 34 33  1  0  0  0  0
 35 33  1  0  0  0  0
 36 34  2  0  0  0  0
 32 35  2  0  0  0  0
 32 36  1  0  0  0  0
M  END
> <ID>
CHEBI:60304

> <NAME>
(E)-testosterone-3-CMO-Hist

> <DEFINITION>
The E (anti) isomer of testosterone-3-CMO-Hist.

> <STAR>
3

> <SYNONYM>
anti-testosterone-3-CMO-Hist

> <IUPAC_NAME>
2-({(E)-[(3E)-17beta-hydroxyandrost-4-en-3-ylidene]amino}oxy)-N-[2-(1H-imidazol-4-yl)ethyl]acetamide

> <FORMULA>
C26H38N4O3

> <MASS>
454.60490

> <MONOISOTOPIC_MASS>
454.29439

> <CHARGE>
0

> <SMILES>
[H][C@@]12CCC3=C\C(CC[C@]3(C)[C@@]1([H])CC[C@]1(C)[C@@H](O)CC[C@@]21[H])=N\OCC(=O)NCCc1c[nH]cn1

> <INCHI>
InChI=1S/C26H38N4O3/c1-25-10-7-18(30-33-15-24(32)28-12-9-19-14-27-16-29-19)13-17(25)3-4-20-21-5-6-23(31)26(21,2)11-8-22(20)25/h13-14,16,20-23,31H,3-12,15H2,1-2H3,(H,27,29)(H,28,32)/b30-18+/t20-,21-,22-,23-,25-,26-/m0/s1

> <INCHIKEY>
JCZWRYDTPWMMKC-IMTWWEEOSA-N

> <REAXYS_REGISTRY_NUMBER>
8372526

> <PUBMED_CITATION>
10400384

$$$$

Marvin  09271015222D          

 36 40  0  0  1  0            999 V2000
   13.2624  -22.5123    0.0000 C   0  0  0  0  0  0  0  0  0  0  0  0
   12.5479  -22.0998    0.0000 C   0  0  0  0  0  0  0  0  0  0  0  0
   13.9769  -22.0998    0.0000 C   0  0  0  0  0  0  0  0  0  0  0  0
   12.5479  -21.2748    0.0000 C   0  0  1  0  0  0  0  0  0  0  0  0
   13.2624  -20.8623    0.0000 C   0  0  2  0  0  0  0  0  0  0  0  0
   13.9769  -21.2748    0.0000 C   0  0  2  0  0  0  0  0  0  0  0  0
   11.8335  -20.8623    0.0000 C   0  0  0  0  0  0  0  0  0  0  0  0
   11.1191  -21.2748    0.0000 C   0  0  0  0  0  0  0  0  0  0  0  0
   11.8335  -22.5123    0.0000 C   0  0  0  0  0  0  0  0  0  0  0  0
   13.2624  -20.0373    0.0000 C   0  0  0  0  0  0  0  0  0  0  0  0
   13.9769  -19.6249    0.0000 C   0  0  0  0  0  0  0  0  0  0  0  0
   15.4758  -21.1172    0.0000 C   0  0  0  0  0  0  0  0  0  0  0  0
   15.9609  -20.4498    0.0000 C   0  0  0  0  0  0  0  0  0  0  0  0
   13.2624  -21.6873    0.0000 H   0  0  0  0  0  0  0  0  0  0  0  0
   13.9768  -20.4498    0.0000 H   0  0  0  0  0  0  0  0  0  0  0  0
   14.6913  -20.8623    0.0000 C   0  0  2  0  0  0  0  0  0  0  0  0
   14.6913  -20.0373    0.0000 C   0  0  2  0  0  0  0  0  0  0  0  0
   14.6913  -21.6873    0.0000 H   0  0  0  0  0  0  0  0  0  0  0  0
   12.5479  -20.4498    0.0000 C   0  0  0  0  0  0  0  0  0  0  0  0
   14.6914  -19.2124    0.0000 C   0  0  0  0  0  0  0  0  0  0  0  0
   15.4758  -19.7824    0.0000 C   0  0  1  0  0  0  0  0  0  0  0  0
   15.7308  -18.9979    0.0000 O   0  0  0  0  0  0  0  0  0  0  0  0
   11.1191  -22.0998    0.0000 C   0  0  0  0  0  0  0  0  0  0  0  0
   10.4046  -22.5123    0.0000 N   0  0  0  0  0  0  0  0  0  0  0  0
   10.4045  -23.3373    0.0000 O   0  0  0  0  0  0  0  0  0  0  0  0
    9.6901  -23.7498    0.0000 C   0  0  0  0  0  0  0  0  0  0  0  0
    8.9756  -23.3373    0.0000 C   0  0  0  0  0  0  0  0  0  0  0  0
    8.2611  -23.7497    0.0000 N   0  0  0  0  0  0  0  0  0  0  0  0
    7.5466  -23.3372    0.0000 C   0  0  0  0  0  0  0  0  0  0  0  0
    6.8321  -23.7497    0.0000 C   0  0  0  0  0  0  0  0  0  0  0  0
    6.1177  -23.3372    0.0000 C   0  0  0  0  0  0  0  0  0  0  0  0
    4.8481  -22.9245    0.0000 N   0  0  0  0  0  0  0  0  0  0  0  0
    5.3331  -22.2571    0.0000 C   0  0  0  0  0  0  0  0  0  0  0  0
    5.3330  -23.5920    0.0000 C   0  0  0  0  0  0  0  0  0  0  0  0
    6.1177  -22.5122    0.0000 N   0  0  0  0  0  0  0  0  0  0  0  0
    8.9756  -22.5123    0.0000 O   0  0  0  0  0  0  0  0  0  0  0  0
  2  1  1  0  0  0  0
  2  9  2  0  0  0  0
  1  3  1  0  0  0  0
  4  2  1  0  0  0  0
  4  7  1  0  0  0  0
  5  4  1  0  0  0  0
  5 10  1  0  0  0  0
  5 14  1  6  0  0  0
  6  5  1  0  0  0  0
  6  3  1  0  0  0  0
 16  6  1  0  0  0  0
  6 15  1  1  0  0  0
  8  7  1  0  0  0  0
 23  8  1  0  0  0  0
 23  9  1  0  0  0  0
 10 11  1  0  0  0  0
 17 11  1  0  0  0  0
 16 12  1  0  0  0  0
 13 12  1  0  0  0  0
 13 21  1  0  0  0  0
 16 17  1  0  0  0  0
 16 18  1  6  0  0  0
 17 21  1  0  0  0  0
 21 22  1  1  0  0  0
 23 24  2  0  0  0  0
  4 19  1  1  0  0  0
 17 20  1  1  0  0  0
 24 25  1  0  0  0  0
 25 26  1  0  0  0  0
 26 27  1  0  0  0  0
 27 28  1  0  0  0  0
 28 29  1  0  0  0  0
 29 30  1  0  0  0  0
 30 31  1  0  0  0  0
 33 32  1  0  0  0  0
 34 32  1  0  0  0  0
 35 33  2  0  0  0  0
 31 34  2  0  0  0  0
 31 35  1  0  0  0  0
 27 36  2  0  0  0  0
M  END
> <ID>
CHEBI:60305

> <NAME>
(Z)-testosterone-3-CMO-Hist

> <DEFINITION>
The Z (syn) isomer of testosterone-3-CMO-Hist.

> <STAR>
3

> <SYNONYM>
syn-testosterone-3-CMO-Hist

> <IUPAC_NAME>
2-({(Z)-[(3Z)-17beta-hydroxyandrost-4-en-3-ylidene]amino}oxy)-N-[2-(1H-imidazol-4-yl)ethyl]acetamide

> <FORMULA>
C26H38N4O3

> <MASS>
454.60490

> <MONOISOTOPIC_MASS>
454.29439

> <CHARGE>
0

> <SMILES>
[H][C@@]12CCC3=C\C(CC[C@]3(C)[C@@]1([H])CC[C@]1(C)[C@@H](O)CC[C@@]21[H])=N/OCC(=O)NCCc1c[nH]cn1

> <INCHI>
InChI=1S/C26H38N4O3/c1-25-10-7-18(30-33-15-24(32)28-12-9-19-14-27-16-29-19)13-17(25)3-4-20-21-5-6-23(31)26(21,2)11-8-22(20)25/h13-14,16,20-23,31H,3-12,15H2,1-2H3,(H,27,29)(H,28,32)/b30-18-/t20-,21-,22-,23-,25-,26-/m0/s1

> <INCHIKEY>
JCZWRYDTPWMMKC-PJAPCDKUSA-N

> <REAXYS_REGISTRY_NUMBER>
8372525

> <PUBMED_CITATION>
10400384

$$$$

Marvin  09301014212D          

 16 17  0  0  0  0            999 V2000
   25.7319   -3.5004    0.0000 C   0  0  0  0  0  0  0  0  0  0  0  0
   26.3152   -2.9171    0.0000 C   0  0  0  0  0  0  0  0  0  0  0  0
   27.1402   -2.9171    0.0000 C   0  0  0  0  0  0  0  0  0  0  0  0
   27.7236   -3.5004    0.0000 C   0  0  0  0  0  0  0  0  0  0  0  0
   26.5190   -3.4999    0.0000 C   0  0  0  0  0  0  0  0  0  0  0  0
   25.7319   -4.3254    0.0000 C   0  0  0  0  0  0  0  0  0  0  0  0
   26.3152   -4.8792    0.0000 O   0  0  0  0  0  0  0  0  0  0  0  0
   27.7236   -4.3254    0.0000 C   0  0  0  0  0  0  0  0  0  0  0  0
   27.1402   -4.9087    0.0000 C   0  0  0  0  0  0  0  0  0  0  0  0
   24.9697   -3.1846    0.0000 O   0  0  0  0  0  0  0  0  0  0  0  0
   27.4559   -5.6709    0.0000 C   0  0  0  0  0  0  0  0  0  0  0  0
   28.2738   -5.7786    0.0000 O   0  5  0  0  0  0  0  0  0  0  0  0
   26.9537   -6.3254    0.0000 O   0  0  0  0  0  0  0  0  0  0  0  0
   28.4381   -3.0879    0.0000 C   0  0  0  0  0  0  0  0  0  0  0  0
   29.1525   -3.5004    0.0000 O   0  5  0  0  0  0  0  0  0  0  0  0
   28.4381   -2.2629    0.0000 O   0  0  0  0  0  0  0  0  0  0  0  0
  1  2  1  0  0  0  0
  2  3  2  0  0  0  0
  3  4  1  0  0  0  0
  4  5  1  0  0  0  0
  5  6  1  0  0  0  0
  1  6  1  0  0  0  0
  6  7  1  0  0  0  0
  4  8  1  0  0  0  0
  8  9  1  0  0  0  0
  9  7  1  0  0  0  0
  1 10  1  0  0  0  0
  9 11  1  0  0  0  0
 11 12  1  0  0  0  0
 11 13  2  0  0  0  0
  4 14  1  0  0  0  0
 14 15  1  0  0  0  0
 14 16  2  0  0  0  0
M  CHG  2  12  -1  15  -1
M  END
> <ID>
CHEBI:60306

> <NAME>
8-hydroxy-2-oxabicyclo[3.3.1]non-6-ene-3,5-dicarboxylate

> <DEFINITION>
Transition state of the chorismate mutase catalyzed Claisen rearrangement of chorismate to prephenate.

> <STAR>
3

> <SYNONYM>
endo-oxabicyclic dicarboxylate; endo-oxabicyclic

> <IUPAC_NAME>
8-hydroxy-2-oxabicyclo[3.3.1]non-6-ene-3,5-dicarboxylate

> <FORMULA>
C10H10O6

> <MASS>
226.18280

> <MONOISOTOPIC_MASS>
226.04884

> <CHARGE>
-2

> <SMILES>
OC1C=CC2(CC1OC(C2)C([O-])=O)C([O-])=O

> <INCHI>
InChI=1S/C10H12O6/c11-5-1-2-10(9(14)15)3-6(5)16-7(4-10)8(12)13/h1-2,5-7,11H,3-4H2,(H,12,13)(H,14,15)/p-2

> <INCHIKEY>
KRZHNRULRHECRF-UHFFFAOYSA-L

> <PUBMED_CITATION>
16499927

$$$$

Marvin  09271016382D          

 24 25  0  0  1  0            999 V2000
    9.9212   -3.7162    0.0000 C   0  0  2  0  0  0  0  0  0  0  0  0
    9.9212   -4.5412    0.0000 C   0  0  1  0  0  0  0  0  0  0  0  0
    9.2068   -3.3037    0.0000 O   0  0  0  0  0  0  0  0  0  0  0  0
    9.2068   -4.9537    0.0000 C   0  0  2  0  0  0  0  0  0  0  0  0
    8.4924   -3.7162    0.0000 C   0  0  1  0  0  0  0  0  0  0  0  0
    8.4924   -4.5412    0.0000 C   0  0  2  0  0  0  0  0  0  0  0  0
   10.6357   -3.3037    0.0000 O   0  0  0  0  0  0  0  0  0  0  0  0
   10.6357   -4.9537    0.0000 N   0  0  0  0  0  0  0  0  0  0  0  0
    9.2068   -5.7786    0.0000 O   0  0  0  0  0  0  0  0  0  0  0  0
    7.7778   -4.9537    0.0000 O   0  0  0  0  0  0  0  0  0  0  0  0
    7.7778   -3.3037    0.0000 C   0  0  0  0  0  0  0  0  0  0  0  0
    7.0634   -3.7162    0.0000 O   0  0  0  0  0  0  0  0  0  0  0  0
   11.3502   -3.7162    0.0000 C   0  0  0  0  0  0  0  0  0  0  0  0
   12.7792   -3.7162    0.0000 C   0  0  0  0  0  0  0  0  0  0  0  0
   12.7792   -4.5412    0.0000 C   0  0  0  0  0  0  0  0  0  0  0  0
   12.0647   -3.3037    0.0000 C   0  0  0  0  0  0  0  0  0  0  0  0
   12.0647   -4.9537    0.0000 C   0  0  0  0  0  0  0  0  0  0  0  0
   11.3502   -4.5412    0.0000 C   0  0  0  0  0  0  0  0  0  0  0  0
   13.4937   -4.9537    0.0000 N   0  3  0  0  0  0  0  0  0  0  0  0
   13.4937   -5.7787    0.0000 O   0  0  0  0  0  0  0  0  0  0  0  0
   14.2082   -4.5412    0.0000 O   0  5  0  0  0  0  0  0  0  0  0  0
   10.6357   -5.7787    0.0000 C   0  0  0  0  0  0  0  0  0  0  0  0
   11.3503   -6.1912    0.0000 O   0  0  0  0  0  0  0  0  0  0  0  0
    9.9213   -6.1912    0.0000 C   0  0  0  0  0  0  0  0  0  0  0  0
  1  2  1  0  0  0  0
  1  3  1  0  0  0  0
  2  4  1  0  0  0  0
  3  5  1  0  0  0  0
  4  6  1  0  0  0  0
  5  6  1  0  0  0  0
  1  7  1  6  0  0  0
  2  8  1  6  0  0  0
  4  9  1  1  0  0  0
  6 10  1  1  0  0  0
  5 11  1  1  0  0  0
 12 11  1  0  0  0  0
  7 13  1  0  0  0  0
 15 14  1  0  0  0  0
 16 14  2  0  0  0  0
 17 15  2  0  0  0  0
 13 16  1  0  0  0  0
 18 17  1  0  0  0  0
 18 13  2  0  0  0  0
 20 19  2  0  0  0  0
 21 19  1  0  0  0  0
 15 19  1  0  0  0  0
 23 22  2  0  0  0  0
 24 22  1  0  0  0  0
  8 22  1  0  0  0  0
M  CHG  2  19   1  21  -1
M  END
> <ID>
CHEBI:60310

> <NAME>
4-nitrophenyl N-acetyl-alpha-D-galactosaminide

> <DEFINITION>
An N-acetyl-α-D-galactosaminide having a 4-nitrophenyl substituent at the anomeric position.

> <STAR>
3

> <SYNONYM>
p-Nitrophenyl 2-acetamido-2-deoxy-alpha-D-galactopyranoside; alpha-D-GalNAc-OC6H4NO2-p; 4-nitrophenyl N-acetyl-alpha-D-galactosaminide

> <IUPAC_NAME>
4-nitrophenyl 2-acetamido-2-deoxy-alpha-D-galactopyranoside

> <FORMULA>
C14H18N2O8

> <MASS>
342.30130

> <MONOISOTOPIC_MASS>
342.10632

> <CHARGE>
0

> <SMILES>
CC(=O)N[C@@H]1[C@@H](O)[C@@H](O)[C@@H](CO)O[C@@H]1Oc1ccc(cc1)[N+]([O-])=O

> <INCHI>
InChI=1S/C14H18N2O8/c1-7(18)15-11-13(20)12(19)10(6-17)24-14(11)23-9-4-2-8(3-5-9)16(21)22/h2-5,10-14,17,19-20H,6H2,1H3,(H,15,18)/t10-,11-,12+,13-,14+/m1/s1

> <INCHIKEY>
OMRLTNCLYHKQCK-RGDJUOJXSA-N

> <BEILSTEIN_REGISTRY_NUMBER>
1440346

> <CAS_REGISTRY_NUMBER>
23646-68-6

> <REAXYS_REGISTRY_NUMBER>
1440346

> <CHEMIDPLUS>
23646-68-6

> <PUBMED_CITATION>
15864747; 19913595

$$$$

Marvin  09281016542D          

 42 44  0  0  1  0            999 V2000
   10.2077   -3.0612    0.0000 O   0  0  0  0  0  0  0  0  0  0  0  0
    9.4935   -3.4737    0.0000 C   0  0  0  0  0  0  0  0  0  0  0  0
    9.4935   -4.2987    0.0000 C   0  0  1  0  0  0  0  0  0  0  0  0
    8.7789   -3.0612    0.0000 O   0  0  0  0  0  0  0  0  0  0  0  0
    8.7789   -4.7112    0.0000 C   0  0  2  0  0  0  0  0  0  0  0  0
    8.0644   -3.4737    0.0000 C   0  0  1  0  0  0  0  0  0  0  0  0
    8.0644   -4.2987    0.0000 C   0  0  1  0  0  0  0  0  0  0  0  0
   10.2077   -4.7112    0.0000 N   0  0  0  0  0  0  0  0  0  0  0  0
    8.7788   -5.5362    0.0000 O   0  0  0  0  0  0  0  0  0  0  0  0
    7.3500   -4.7112    0.0000 O   0  0  0  0  0  0  0  0  0  0  0  0
    7.3500   -3.0612    0.0000 C   0  0  0  0  0  0  0  0  0  0  0  0
    6.6354   -3.4737    0.0000 O   0  0  0  0  0  0  0  0  0  0  0  0
   10.2077   -5.5362    0.0000 C   0  0  0  0  0  0  0  0  0  0  0  0
   10.9223   -5.9487    0.0000 O   0  0  0  0  0  0  0  0  0  0  0  0
    9.4935   -5.9487    0.0000 C   0  0  0  0  0  0  0  0  0  0  0  0
    6.6355   -5.1237    0.0000 C   0  0  1  0  0  0  0  0  0  0  0  0
    6.6355   -5.9487    0.0000 C   0  0  1  0  0  0  0  0  0  0  0  0
    5.9210   -4.7112    0.0000 O   0  0  0  0  0  0  0  0  0  0  0  0
    5.9210   -6.3614    0.0000 C   0  0  2  0  0  0  0  0  0  0  0  0
    5.2066   -5.1237    0.0000 C   0  0  1  0  0  0  0  0  0  0  0  0
    5.2066   -5.9487    0.0000 C   0  0  2  0  0  0  0  0  0  0  0  0
    7.3500   -6.3614    0.0000 O   0  0  0  0  0  0  0  0  0  0  0  0
    5.9210   -7.1864    0.0000 O   0  0  0  0  0  0  0  0  0  0  0  0
    4.4920   -6.3614    0.0000 O   0  0  0  0  0  0  0  0  0  0  0  0
    4.4920   -4.7112    0.0000 C   0  0  0  0  0  0  0  0  0  0  0  0
    3.7778   -5.1237    0.0000 O   0  0  0  0  0  0  0  0  0  0  0  0
    5.2064   -7.5987    0.0000 C   0  0  1  0  0  0  0  0  0  0  0  0
    5.2064   -8.4237    0.0000 C   0  0  1  0  0  0  0  0  0  0  0  0
    4.4920   -7.1864    0.0000 O   0  0  0  0  0  0  0  0  0  0  0  0
    4.4920   -8.8362    0.0000 C   0  0  2  0  0  0  0  0  0  0  0  0
    3.7776   -7.5987    0.0000 C   0  0  1  0  0  0  0  0  0  0  0  0
    3.7776   -8.4237    0.0000 C   0  0  1  0  0  0  0  0  0  0  0  0
    5.9210   -8.8362    0.0000 O   0  0  0  0  0  0  0  0  0  0  0  0
    4.4920   -9.6612    0.0000 O   0  0  0  0  0  0  0  0  0  0  0  0
    3.0631   -8.8362    0.0000 O   0  0  0  0  0  0  0  0  0  0  0  0
    3.0631   -7.1864    0.0000 C   0  0  0  0  0  0  0  0  0  0  0  0
    2.3486   -7.5987    0.0000 O   0  0  0  0  0  0  0  0  0  0  0  0
    3.0631   -6.3614    0.0000 O   0  0  0  0  0  0  0  0  0  0  0  0
    3.7776  -10.0737    0.0000 S   0  0  0  0  0  0  0  0  0  0  0  0
    4.1901  -10.7882    0.0000 O   0  0  0  0  0  0  0  0  0  0  0  0
    3.3651   -9.3593    0.0000 O   0  0  0  0  0  0  0  0  0  0  0  0
    3.0631  -10.4862    0.0000 O   0  0  0  0  0  0  0  0  0  0  0  0
  2  3  1  0  0  0  0
  2  4  1  0  0  0  0
  3  5  1  0  0  0  0
  4  6  1  0  0  0  0
  5  7  1  0  0  0  0
  6  7  1  0  0  0  0
  2  1  1  0  0  0  0
  3  8  1  6  0  0  0
  5  9  1  1  0  0  0
  7 10  1  6  0  0  0
  6 11  1  1  0  0  0
 12 11  1  0  0  0  0
 14 13  2  0  0  0  0
 15 13  1  0  0  0  0
  8 13  1  0  0  0  0
 16 17  1  0  0  0  0
 16 18  1  0  0  0  0
 17 19  1  0  0  0  0
 18 20  1  0  0  0  0
 19 21  1  0  0  0  0
 20 21  1  0  0  0  0
 16 10  1  1  0  0  0
 17 22  1  6  0  0  0
 19 23  1  1  0  0  0
 21 24  1  1  0  0  0
 20 25  1  1  0  0  0
 26 25  1  0  0  0  0
 27 28  1  0  0  0  0
 27 29  1  0  0  0  0
 28 30  1  0  0  0  0
 29 31  1  0  0  0  0
 30 32  1  0  0  0  0
 31 32  1  0  0  0  0
 27 23  1  1  0  0  0
 28 33  1  6  0  0  0
 30 34  1  1  0  0  0
 32 35  1  6  0  0  0
 31 36  1  1  0  0  0
 37 36  1  0  0  0  0
 36 38  2  0  0  0  0
 40 39  2  0  0  0  0
 41 39  2  0  0  0  0
 42 39  1  0  0  0  0
 34 39  1  0  0  0  0
M  END
> <ID>
CHEBI:60322

> <NAME>
beta-D-GlcA3S-(1->3)-beta-D-Gal-(1->4)-D-GlcNAc

> <DEFINITION>
An amino trisaccharide consisting of a 3-O-sulfo-β-D-glucuronic acid residue, a D-galactosyl residue and an N-acetyl-D-glucosamine residue (at the reducing end) in a linear sequence.

> <STAR>
3

> <SYNONYM>
human natural killer-1 carbohydrate epitope; HNK-1 carbohydrate epitope; GlcA3Sbeta1-3Galbeta1-4GlcNAc; beta-D-GlcpA3S-(1->3)-beta-D-Galp-(1->4)-D-GlcpNAc; 3-O-sulfo-beta-D-GlcpA-(1->3)-beta-D-Galp-(1->4)-D-GlcpNAc; 3-O-sulfo-beta-D-GlcA-(1->3)-beta-D-Gal-(1->4)-D-GlcNAc

> <IUPAC_NAME>
3-O-sulfo-beta-D-glucopyranuronosyl-(1->3)-beta-D-galactopyranosyl-(1->4)-2-acetamido-2-deoxy-D-glucopyranose

> <FORMULA>
C20H33NO20S

> <MASS>
639.53600

> <MONOISOTOPIC_MASS>
639.13166

> <CHARGE>
0

> <SMILES>
CC(=O)N[C@H]1C(O)O[C@H](CO)[C@@H](O[C@@H]2O[C@H](CO)[C@H](O)[C@H](O[C@@H]3O[C@@H]([C@@H](O)[C@H](OS(O)(=O)=O)[C@H]3O)C(O)=O)[C@H]2O)[C@@H]1O

> <INCHI>
InChI=1S/C20H33NO20S/c1-4(24)21-7-9(26)13(6(3-23)36-18(7)32)38-19-11(28)14(8(25)5(2-22)37-19)39-20-12(29)15(41-42(33,34)35)10(27)16(40-20)17(30)31/h5-16,18-20,22-23,25-29,32H,2-3H2,1H3,(H,21,24)(H,30,31)(H,33,34,35)/t5-,6-,7-,8+,9-,10+,11-,12-,13-,14+,15+,16+,18?,19+,20-/m1/s1

> <INCHIKEY>
AKXIYZBZYOTHPH-SKSRJFFGSA-N

> <PUBMED_CITATION>
12383500; 12472892; 16897771; 17935701; 28403522; 8798480

$$$$

Marvin  10111011052D          

 49 51  0  0  1  0            999 V2000
    8.4409   -5.1433    0.0000 O   0  0  0  0  0  0  0  0  0  0  0  0
    7.7264   -5.5558    0.0000 C   0  0  1  0  0  0  0  0  0  0  0  0
    9.1553   -5.5558    0.0000 C   0  0  1  0  0  0  0  0  0  0  0  0
    9.1553   -6.3808    0.0000 C   0  0  0  0  0  0  0  0  0  0  0  0
    8.4409   -6.7933    0.0000 C   0  0  2  0  0  0  0  0  0  0  0  0
    7.7264   -6.3808    0.0000 C   0  0  1  0  0  0  0  0  0  0  0  0
    7.0120   -5.1432    0.0000 C   0  0  1  0  0  0  0  0  0  0  0  0
    8.4408   -7.6183    0.0000 O   0  0  0  0  0  0  0  0  0  0  0  0
    7.0120   -6.7932    0.0000 O   0  0  0  0  0  0  0  0  0  0  0  0
    7.7264   -4.7308    0.0000 H   0  0  0  0  0  0  0  0  0  0  0  0
    5.5832   -5.1433    0.0000 O   0  0  0  0  0  0  0  0  0  0  0  0
    6.2976   -5.5557    0.0000 C   0  0  0  0  0  0  0  0  0  0  0  0
    7.0120   -4.3182    0.0000 O   0  0  0  0  0  0  0  0  0  0  0  0
    9.6463   -4.8457    0.0000 O   0  0  0  0  0  0  0  0  0  0  0  0
    9.9428   -5.8015    0.0000 C   0  0  0  0  0  0  0  0  0  0  0  0
   10.5495   -5.2425    0.0000 O   0  0  0  0  0  0  0  0  0  0  0  0
   10.1238   -6.6066    0.0000 O   0  0  0  0  0  0  0  0  0  0  0  0
    7.2354   -7.9160    0.0000 O   0  0  0  0  0  0  0  0  0  0  0  0
    6.5209   -8.3285    0.0000 C   0  0  1  0  0  0  0  0  0  0  0  0
    7.9499   -8.3285    0.0000 C   0  0  1  0  0  0  0  0  0  0  0  0
    7.9499   -9.1535    0.0000 C   0  0  0  0  0  0  0  0  0  0  0  0
    7.2354   -9.5661    0.0000 C   0  0  2  0  0  0  0  0  0  0  0  0
    6.5209   -9.1535    0.0000 C   0  0  1  0  0  0  0  0  0  0  0  0
    5.8065   -7.9159    0.0000 C   0  0  1  0  0  0  0  0  0  0  0  0
    7.2353  -10.3911    0.0000 O   0  0  0  0  0  0  0  0  0  0  0  0
    5.8064   -9.5659    0.0000 O   0  0  0  0  0  0  0  0  0  0  0  0
    6.5209   -7.5035    0.0000 H   0  0  0  0  0  0  0  0  0  0  0  0
    5.0921   -8.3284    0.0000 C   0  0  0  0  0  0  0  0  0  0  0  0
    5.8065   -7.0908    0.0000 O   0  0  0  0  0  0  0  0  0  0  0  0
    8.7373   -8.5743    0.0000 C   0  0  0  0  0  0  0  0  0  0  0  0
    9.3439   -8.0151    0.0000 O   0  0  0  0  0  0  0  0  0  0  0  0
    8.9183   -9.3793    0.0000 O   0  0  0  0  0  0  0  0  0  0  0  0
    5.0921   -9.1534    0.0000 O   0  0  0  0  0  0  0  0  0  0  0  0
    4.8686   -6.3809    0.0000 C   0  0  0  0  0  0  0  0  0  0  0  0
    4.1540   -5.1433    0.0000 O   0  0  0  0  0  0  0  0  0  0  0  0
    4.1542   -6.7934    0.0000 C   0  0  1  0  0  0  0  0  0  0  0  0
    4.1542   -7.6184    0.0000 O   0  0  0  0  0  0  0  0  0  0  0  0
    3.4396   -6.3809    0.0000 C   0  0  2  0  0  0  0  0  0  0  0  0
    4.8686   -5.5558    0.0000 C   0  0  2  0  0  0  0  0  0  0  0  0
    3.4396   -5.5558    0.0000 C   0  0  1  0  0  0  0  0  0  0  0  0
    2.7254   -5.1433    0.0000 C   0  0  1  0  0  0  0  0  0  0  0  0
    2.7254   -6.7934    0.0000 O   0  0  0  0  0  0  0  0  0  0  0  0
    2.0105   -5.5556    0.0000 C   0  0  0  0  0  0  0  0  0  0  0  0
    2.7256   -4.3183    0.0000 O   0  0  0  0  0  0  0  0  0  0  0  0
    1.2964   -5.1428    0.0000 O   0  0  0  0  0  0  0  0  0  0  0  0
    4.1542   -4.3183    0.0000 O   0  0  0  0  0  0  0  0  0  0  0  0
    4.8686   -4.7308    0.0000 C   0  0  0  0  0  0  0  0  0  0  0  0
    5.5832   -4.3183    0.0000 O   0  0  0  0  0  0  0  0  0  0  0  0
    3.4509   -4.7258    0.0000 H   0  0  0  0  0  0  0  0  0  0  0  0
  2  1  1  0  0  0  0
  7  2  1  0  0  0  0
  2 10  1  6  0  0  0
  3  1  1  0  0  0  0
  3  4  1  0  0  0  0
  5  4  1  0  0  0  0
  5  8  1  1  0  0  0
  6  5  1  0  0  0  0
  2  6  1  0  0  0  0
  6  9  1  1  0  0  0
  7 13  1  1  0  0  0
  7 12  1  0  0  0  0
 12 11  1  0  0  0  0
  3 14  1  6  0  0  0
 16 15  2  0  0  0  0
 17 15  1  0  0  0  0
  3 15  1  0  0  0  0
 19 18  1  0  0  0  0
 24 19  1  0  0  0  0
 19 27  1  6  0  0  0
 20 18  1  0  0  0  0
 20 21  1  0  0  0  0
 22 21  1  0  0  0  0
 22 25  1  1  0  0  0
 23 22  1  0  0  0  0
 19 23  1  0  0  0  0
 23 26  1  1  0  0  0
 24 29  1  1  0  0  0
 24 28  1  0  0  0  0
 20  8  1  6  0  0  0
 31 30  2  0  0  0  0
 32 30  1  0  0  0  0
 20 30  1  0  0  0  0
 28 33  1  0  0  0  0
 36 34  1  0  0  0  0
 36 37  1  1  0  0  0
 38 36  1  0  0  0  0
 38 42  1  1  0  0  0
 39 35  1  0  0  0  0
 39 34  1  0  0  0  0
 39 11  1  6  0  0  0
 39 47  1  0  0  0  0
 40 38  1  0  0  0  0
 40 35  1  0  0  0  0
 40 41  1  0  0  0  0
 40 49  1  6  0  0  0
 41 43  1  0  0  0  0
 41 44  1  1  0  0  0
 43 45  1  0  0  0  0
 47 46  1  0  0  0  0
 47 48  2  0  0  0  0
M  END
> <ID>
CHEBI:60393

> <NAME>
alpha-Kdo-(2->8)-[alpha-Kdo-(2->4)]-alpha-Kdo

> <DEFINITION>
A trisaccharide consisting of three 3-deoxy-α-D-manno-oct-2-ulopyranonosyl units in a branched sequence.

> <STAR>
3

> <SYNONYM>
Kdo(2->8)[Kdo(2->4)]Kdo

> <IUPAC_NAME>
3-deoxy-alpha-D-manno-oct-2-ulopyranonosyl-(2->4)-[3-deoxy-alpha-D-manno-oct-2-ulopyranonosyl-(2->8)]-3-deoxy-alpha-D-manno-oct-2-ulopyranosonic acid

> <FORMULA>
C24H38O22

> <MASS>
678.54530

> <MONOISOTOPIC_MASS>
678.18547

> <CHARGE>
0

> <SMILES>
[H][C@@]1(O[C@@](C[C@@H](O)[C@H]1O)(OC[C@@H](O)[C@@]1([H])O[C@](O)(C[C@@H](O[C@@]2(C[C@@H](O)[C@@H](O)[C@]([H])(O2)[C@H](O)CO)C(O)=O)[C@H]1O)C(O)=O)C(O)=O)[C@H](O)CO

> <INCHI>
InChI=1S/C24H38O22/c25-4-9(29)16-13(32)7(27)1-23(45-16,20(37)38)42-6-11(31)18-15(34)12(3-22(41,44-18)19(35)36)43-24(21(39)40)2-8(28)14(33)17(46-24)10(30)5-26/h7-18,25-34,41H,1-6H2,(H,35,36)(H,37,38)(H,39,40)/t7-,8-,9-,10-,11-,12-,13-,14-,15-,16-,17-,18-,22-,23-,24-/m1/s1

> <INCHIKEY>
ODUXWSZMWJAAPV-VGCKMWDQSA-N

> <PUBMED_CITATION>
20000757

$$$$

Marvin  10111013522D          

 13 13  0  0  1  0            999 V2000
   17.5413   -5.8094    0.0000 O   0  0  0  0  0  0  0  0  0  0  0  0
   17.5411   -7.4591    0.0000 O   0  0  0  0  0  0  0  0  0  0  0  0
   16.8266   -6.2198    0.0000 C   0  0  1  0  0  0  0  0  0  0  0  0
   16.8266   -7.0448    0.0000 C   0  0  1  0  0  0  0  0  0  0  0  0
   16.1045   -5.8092    0.0000 O   0  0  0  0  0  0  0  0  0  0  0  0
   16.1042   -7.4590    0.0000 C   0  0  1  0  0  0  0  0  0  0  0  0
   15.3860   -6.2197    0.0000 C   0  0  2  0  0  0  0  0  0  0  0  0
   15.3860   -7.0446    0.0000 C   0  0  2  0  0  0  0  0  0  0  0  0
   16.1079   -8.2876    0.0000 O   0  0  0  0  0  0  0  0  0  0  0  0
   14.6791   -5.8091    0.0000 C   0  0  0  0  0  0  0  0  0  0  0  0
   14.6788   -7.4589    0.0000 O   0  0  0  0  0  0  0  0  0  0  0  0
   15.3953   -8.7033    0.0000 C   0  0  0  0  0  0  0  0  0  0  0  0
   13.9618   -7.0509    0.0000 C   0  0  0  0  0  0  0  0  0  0  0  0
  3  1  1  1  0  0  0
  3  4  1  0  0  0  0
  3  5  1  0  0  0  0
  4  6  1  0  0  0  0
  4  2  1  6  0  0  0
  5  7  1  0  0  0  0
  6  8  1  0  0  0  0
  6  9  1  6  0  0  0
  7 10  1  6  0  0  0
  8 11  1  1  0  0  0
  7  8  1  0  0  0  0
  9 12  1  0  0  0  0
 11 13  1  0  0  0  0
M  END
> <ID>
CHEBI:60398

> <NAME>
3,4-di-O-methyl-alpha-L-rhamnose

> <DEFINITION>
A monosaccharide derivative that is the 3,4-di-O-methyl derivative of α-L-rhamnose. An epitope identified from the glycolipids isolated from Mycobacterium chelonae and Mycobacterium abscessus.

> <STAR>
3

> <SYNONYM>
O(3),O(4)-dimethyl-alpha-L-6-deoxymannopyranose; 6-deoxy-O(3),O(4)-dimethyl-alpha-L-mannopyranose; 6-deoxy-3,4-di-O-methyl-alpha-L-mannopyranose

> <IUPAC_NAME>
3,4-di-O-methyl-alpha-L-rhamnopyranose

> <FORMULA>
C8H16O5

> <MASS>
192.20960

> <MONOISOTOPIC_MASS>
192.09977

> <CHARGE>
0

> <SMILES>
CO[C@H]1[C@H](C)O[C@@H](O)[C@H](O)[C@@H]1OC

> <INCHI>
InChI=1S/C8H16O5/c1-4-6(11-2)7(12-3)5(9)8(10)13-4/h4-10H,1-3H3/t4-,5+,6-,7-,8+/m0/s1

> <INCHIKEY>
BTLHIWBHHPKNFQ-GWVFRZDISA-N

> <BEILSTEIN_REGISTRY_NUMBER>
2354336

> <REAXYS_REGISTRY_NUMBER>
2354336

> <PUBMED_CITATION>
8025677

$$$$

Marvin  10111014472D          

 17 17  0  0  1  0            999 V2000
   22.8990   -2.7166    0.0000 O   0  0  0  0  0  0  0  0  0  0  0  0
   21.4701   -5.1915    0.0000 O   0  0  0  0  0  0  0  0  0  0  0  0
   22.1845   -3.1291    0.0000 C   0  0  1  0  0  0  0  0  0  0  0  0
   22.1845   -3.9541    0.0000 C   0  0  1  0  0  0  0  0  0  0  0  0
   21.4702   -2.7166    0.0000 O   0  0  0  0  0  0  0  0  0  0  0  0
   21.4701   -4.3666    0.0000 C   0  0  1  0  0  0  0  0  0  0  0  0
   20.7557   -3.1291    0.0000 C   0  0  2  0  0  0  0  0  0  0  0  0
   20.7557   -3.9541    0.0000 C   0  0  2  0  0  0  0  0  0  0  0  0
   22.8990   -4.3666    0.0000 O   0  0  0  0  0  0  0  0  0  0  0  0
   20.0412   -4.3666    0.0000 O   0  0  0  0  0  0  0  0  0  0  0  0
   20.0412   -2.7166    0.0000 C   0  0  0  0  0  0  0  0  0  0  0  0
   20.7556   -5.6041    0.0000 C   0  0  0  0  0  0  0  0  0  0  0  0
   19.3268   -3.9541    0.0000 C   0  0  0  0  0  0  0  0  0  0  0  0
   22.8989   -5.1917    0.0000 S   0  0  0  0  0  0  0  0  0  0  0  0
   23.7239   -5.1917    0.0000 O   0  0  0  0  0  0  0  0  0  0  0  0
   22.0739   -5.1916    0.0000 O   0  0  0  0  0  0  0  0  0  0  0  0
   22.8988   -6.0167    0.0000 O   0  0  0  0  0  0  0  0  0  0  0  0
  3  4  1  0  0  0  0
  3  5  1  0  0  0  0
  4  6  1  0  0  0  0
  5  7  1  0  0  0  0
  6  8  1  0  0  0  0
  7  8  1  0  0  0  0
  3  1  1  1  0  0  0
  4  9  1  6  0  0  0
  6  2  1  6  0  0  0
  8 10  1  1  0  0  0
  7 11  1  6  0  0  0
  2 12  1  0  0  0  0
 10 13  1  0  0  0  0
 15 14  2  0  0  0  0
 16 14  2  0  0  0  0
 17 14  1  0  0  0  0
  9 14  1  0  0  0  0
M  END
> <ID>
CHEBI:60399

> <NAME>
2-O-sulfo-3,4-di-O-methyl-alpha-L-rhamnose

> <DEFINITION>
The 2-O-sulfo-3,4-di-O-methyl derivative of α-L-rhamnopyranose

> <STAR>
3

> <SYNONYM>
6-deoxy-3,4-di-O-methyl-2-O-sulfo-alpha-L-mannopyranose; 2-sulfate-3,4-di-O-methyl-alpha-L-rhamnose

> <IUPAC_NAME>
3,4-di-O-methyl-2-O-sulfo-alpha-L-rhamnopyranose

> <FORMULA>
C8H16O8S

> <MASS>
272.27300

> <MONOISOTOPIC_MASS>
272.05659

> <CHARGE>
0

> <SMILES>
CO[C@H]1[C@H](C)O[C@@H](O)[C@H](OS(O)(=O)=O)[C@@H]1OC

> <INCHI>
InChI=1S/C8H16O8S/c1-4-5(13-2)6(14-3)7(8(9)15-4)16-17(10,11)12/h4-9H,1-3H3,(H,10,11,12)/t4-,5-,6+,7+,8+/m0/s1

> <INCHIKEY>
KZTCNRPXUUBLRS-TVNFTVLESA-N

> <PUBMED_CITATION>
8025677

$$$$

Ketcher 03161606112D 1   1.00000     0.00000     0

 10 10  0     0  0            999 V2000
   21.4715  -36.6319    0.0000 C   0  0  0  0  0  0  0  0  0  0  0  0
   21.1627  -37.5823    0.0000 C   0  0  0  0  0  0  0  0  0  0  0  0
   21.9712  -38.1697    0.0000 N   0  0  0  0  0  0  0  0  0  0  0  0
   22.7796  -37.5823    0.0000 C   0  0  0  0  0  0  0  0  0  0  0  0
   22.4708  -36.6319    0.0000 C   0  0  0  0  0  0  0  0  0  0  0  0
   23.7300  -37.8911    0.0000 C   0  0  0  0  0  0  0  0  0  0  0  0
   23.9377  -38.8685    0.0000 O   0  0  0  0  0  0  0  0  0  0  0  0
   20.2123  -37.8911    0.0000 C   0  0  0  0  0  0  0  0  0  0  0  0
   20.0046  -38.8686    0.0000 O   0  0  0  0  0  0  0  0  0  0  0  0
   24.4405  -37.1785    0.0000 H   0  0  0  0  0  0  0  0  0  0  0  0
  4  5  2  0     0  0
  5  1  1  0     0  0
  1  2  2  0     0  0
  4  6  1  0     0  0
  6  7  2  0     0  0
  2  3  1  0     0  0
  2  8  1  0     0  0
  3  4  1  0     0  0
  8  9  1  0     0  0
  6 10  1  0     0  0
M  END
> <ID>
CHEBI:604731

> <NAME>
pyrraline

> <DEFINITION>
A pyrrole having formyl and hydroxymethyl substituents at positions 2 and 5 respectively; useful as indicator of advanced stages of the Maillard reaction, which produces advanced glycation end-products (AGEs).

> <STAR>
3

> <SYNONYM>
5-(hydroxymethyl)pyrrole-2-carboxaldehyde; 2-Formyl-5-(hydroxymethyl)pyrrole-1-norleucine; 2-Fhmpn; 2-Amino-6-(2-formyl-5-hydroxymethylpyrrol-1-yl)hexanoic acid; 2-amino-6-(2-formyl-5-hydroxymethyl-1-pyrrolyl)-hexanoic acid

> <IUPAC_NAME>
5-(hydroxymethyl)-1H-pyrrole-2-carbaldehyde

> <FORMULA>
C6H7NO2

> <MASS>
125.126

> <MONOISOTOPIC_MASS>
125.04768

> <CHARGE>
0

> <SMILES>
C=1C=C(C(=O)[H])NC1CO

> <INCHI>
InChI=1S/C6H7NO2/c8-3-5-1-2-6(4-9)7-5/h1-3,7,9H,4H2

> <INCHIKEY>
SRPREECLSOIPNK-UHFFFAOYSA-N

> <BEILSTEIN_REGISTRY_NUMBER>
1524599

> <PUBMED_CITATION>
1556177; 19555106; 24505139; 26260362; 27384561; 27626184; 28081599; 8717098

$$$$

Marvin  10211015102D          

 14 16  0  0  0  0            999 V2000
   11.0443   -6.0872    0.0000 N   0  0  0  0  0  0  0  0  0  0  0  0
   11.0443   -5.2622    0.0000 N   0  0  0  0  0  0  0  0  0  0  0  0
    8.1866   -5.2622    0.0000 C   0  0  0  0  0  0  0  0  0  0  0  0
    8.1866   -6.0872    0.0000 C   0  0  0  0  0  0  0  0  0  0  0  0
    8.9009   -6.4997    0.0000 C   0  0  0  0  0  0  0  0  0  0  0  0
    9.6154   -6.0872    0.0000 C   0  0  0  0  0  0  0  0  0  0  0  0
    9.6154   -5.2622    0.0000 C   0  0  0  0  0  0  0  0  0  0  0  0
    8.9009   -4.8497    0.0000 C   0  0  0  0  0  0  0  0  0  0  0  0
   10.3299   -6.4997    0.0000 C   0  0  0  0  0  0  0  0  0  0  0  0
   10.3299   -4.8497    0.0000 C   0  0  0  0  0  0  0  0  0  0  0  0
   10.5014   -4.0427    0.0000 N   0  0  0  0  0  0  0  0  0  0  0  0
   11.3219   -3.9565    0.0000 N   0  0  0  0  0  0  0  0  0  0  0  0
   11.6574   -4.7102    0.0000 C   0  0  0  0  0  0  0  0  0  0  0  0
   12.4644   -4.8817    0.0000 C   0  0  0  0  0  0  0  0  0  0  0  0
  1  2  1  0  0  0  0
  3  4  2  0  0  0  0
  4  5  1  0  0  0  0
  5  6  2  0  0  0  0
  6  7  1  0  0  0  0
  3  8  1  0  0  0  0
  7  8  2  0  0  0  0
  9  1  2  0  0  0  0
  6  9  1  0  0  0  0
  7 10  1  0  0  0  0
  2 13  1  0  0  0  0
  2 10  1  0  0  0  0
 10 11  2  0  0  0  0
 11 12  1  0  0  0  0
 12 13  2  0  0  0  0
 13 14  1  0  0  0  0
M  END
> <ID>
CHEBI:60480

> <NAME>
3-methyl-1,2,4-triazolo[3,4-a]phthalazine

> <DEFINITION>
A 1,2,4-triazolo[3,4-a]phthalazine having a methyl substituent at the 3-position.

> <STAR>
3

> <SYNONYM>
3-Methyltriazolophthalazine; 3-methyl-s-triazolo[3,4-a]phthalazine

> <IUPAC_NAME>
3-methyl[1,2,4]triazolo[3,4-a]phthalazine

> <FORMULA>
C10H8N4

> <MASS>
184.19730

> <MONOISOTOPIC_MASS>
184.07490

> <CHARGE>
0

> <SMILES>
Cc1nnc2c3ccccc3cnn12

> <INCHI>
InChI=1S/C10H8N4/c1-7-12-13-10-9-5-3-2-4-8(9)6-11-14(7)10/h2-6H,1H3

> <INCHIKEY>
HAADZFBBHXCGLW-UHFFFAOYSA-N

> <BEILSTEIN_REGISTRY_NUMBER>
162964

> <CAS_REGISTRY_NUMBER>
20062-41-3

> <CHEMIDPLUS>
20062-41-3

> <PUBMED_CITATION>
808562

$$$$

Marvin  11041013412D          

 51 53  0  0  1  0            999 V2000
   13.3603   -7.6941    0.0000 C   0  0  0  0  0  0  0  0  0  0  0  0
   12.6457   -6.4566    0.0000 O   0  0  0  0  0  0  0  0  0  0  0  0
   12.6459   -8.1066    0.0000 C   0  0  1  0  0  0  0  0  0  0  0  0
   12.6459   -8.9316    0.0000 O   0  0  0  0  0  0  0  0  0  0  0  0
   11.9313   -7.6941    0.0000 C   0  0  2  0  0  0  0  0  0  0  0  0
   13.3603   -6.8691    0.0000 C   0  0  2  0  0  0  0  0  0  0  0  0
   11.9313   -6.8691    0.0000 C   0  0  1  0  0  0  0  0  0  0  0  0
   11.2171   -6.4566    0.0000 C   0  0  1  0  0  0  0  0  0  0  0  0
   11.2171   -8.1066    0.0000 O   0  0  0  0  0  0  0  0  0  0  0  0
   10.5022   -6.8689    0.0000 C   0  0  0  0  0  0  0  0  0  0  0  0
   11.2172   -5.6316    0.0000 O   0  0  0  0  0  0  0  0  0  0  0  0
    9.7881   -6.4561    0.0000 O   0  0  0  0  0  0  0  0  0  0  0  0
   14.0748   -6.4566    0.0000 O   0  0  0  0  0  0  0  0  0  0  0  0
   12.6459   -5.6316    0.0000 O   0  0  0  0  0  0  0  0  0  0  0  0
   13.3603   -6.0441    0.0000 C   0  0  0  0  0  0  0  0  0  0  0  0
   14.0748   -5.6316    0.0000 O   0  0  0  0  0  0  0  0  0  0  0  0
   11.9426   -6.0391    0.0000 H   0  0  0  0  0  0  0  0  0  0  0  0
   16.9328   -6.4566    0.0000 C   0  0  1  0  0  0  0  0  0  0  0  0
   16.9328   -7.2816    0.0000 C   0  0  1  0  0  0  0  0  0  0  0  0
   16.2182   -6.0441    0.0000 O   0  0  0  0  0  0  0  0  0  0  0  0
   16.2182   -7.6941    0.0000 C   0  0  2  0  0  0  0  0  0  0  0  0
   15.5038   -6.4566    0.0000 C   0  0  1  0  0  0  0  0  0  0  0  0
   15.5038   -7.2816    0.0000 C   0  0  1  0  0  0  0  0  0  0  0  0
   17.6472   -6.0441    0.0000 O   0  0  0  0  0  0  0  0  0  0  0  0
   17.6472   -7.6941    0.0000 N   0  0  0  0  0  0  0  0  0  0  0  0
   16.2182   -8.5191    0.0000 O   0  0  0  0  0  0  0  0  0  0  0  0
   14.7893   -7.6941    0.0000 O   0  0  0  0  0  0  0  0  0  0  0  0
   14.7893   -6.0441    0.0000 C   0  0  0  0  0  0  0  0  0  0  0  0
   14.7893   -8.5191    0.0000 P   0  0  0  0  0  0  0  0  0  0  0  0
   14.0748   -8.9316    0.0000 O   0  0  0  0  0  0  0  0  0  0  0  0
   15.5038   -8.9316    0.0000 O   0  0  0  0  0  0  0  0  0  0  0  0
   14.8656   -9.3435    0.0000 O   0  0  0  0  0  0  0  0  0  0  0  0
   20.5052   -6.0441    0.0000 C   0  0  2  0  0  0  0  0  0  0  0  0
   20.5052   -6.8691    0.0000 C   0  0  1  0  0  0  0  0  0  0  0  0
   19.7906   -5.6316    0.0000 O   0  0  0  0  0  0  0  0  0  0  0  0
   19.7906   -7.2816    0.0000 C   0  0  2  0  0  0  0  0  0  0  0  0
   19.0762   -6.0441    0.0000 C   0  0  1  0  0  0  0  0  0  0  0  0
   19.0762   -6.8691    0.0000 C   0  0  1  0  0  0  0  0  0  0  0  0
   21.2196   -5.6316    0.0000 O   0  0  0  0  0  0  0  0  0  0  0  0
   21.2196   -7.2816    0.0000 N   0  0  0  0  0  0  0  0  0  0  0  0
   19.7906   -8.1066    0.0000 O   0  0  0  0  0  0  0  0  0  0  0  0
   18.3617   -7.2816    0.0000 O   0  0  0  0  0  0  0  0  0  0  0  0
   18.3617   -5.6316    0.0000 C   0  0  0  0  0  0  0  0  0  0  0  0
   21.2196   -4.8066    0.0000 P   0  0  0  0  0  0  0  0  0  0  0  0
   21.9340   -4.3941    0.0000 O   0  0  0  0  0  0  0  0  0  0  0  0
   20.5051   -4.3941    0.0000 O   0  0  0  0  0  0  0  0  0  0  0  0
   22.0165   -5.0202    0.0000 O   0  0  0  0  0  0  0  0  0  0  0  0
   11.9314   -9.3441    0.0000 P   0  0  0  0  0  0  0  0  0  0  0  0
   11.2169   -8.9316    0.0000 O   0  0  0  0  0  0  0  0  0  0  0  0
   11.9314  -10.1692    0.0000 O   0  0  0  0  0  0  0  0  0  0  0  0
   11.2557   -9.8224    0.0000 O   0  0  0  0  0  0  0  0  0  0  0  0
  3  1  1  0  0  0  0
  3  4  1  1  0  0  0
  5  3  1  0  0  0  0
  5  9  1  1  0  0  0
  6  2  1  0  0  0  0
  6  1  1  0  0  0  0
  6 13  1  6  0  0  0
  6 15  1  0  0  0  0
  7  5  1  0  0  0  0
  7  2  1  0  0  0  0
  7  8  1  0  0  0  0
  7 17  1  6  0  0  0
  8 10  1  0  0  0  0
  8 11  1  1  0  0  0
 10 12  1  0  0  0  0
 15 14  1  0  0  0  0
 15 16  2  0  0  0  0
 18 19  1  0  0  0  0
 18 20  1  0  0  0  0
 19 21  1  0  0  0  0
 20 22  1  0  0  0  0
 21 23  1  0  0  0  0
 22 23  1  0  0  0  0
 18 24  1  1  0  0  0
 19 25  1  6  0  0  0
 21 26  1  1  0  0  0
 23 27  1  6  0  0  0
 22 28  1  1  0  0  0
 13 28  1  0  0  0  0
 27 29  1  0  0  0  0
 29 30  1  0  0  0  0
 29 31  2  0  0  0  0
 29 32  1  0  0  0  0
 24 43  1  0  0  0  0
 33 34  1  0  0  0  0
 33 35  1  0  0  0  0
 34 36  1  0  0  0  0
 35 37  1  0  0  0  0
 36 38  1  0  0  0  0
 37 38  1  0  0  0  0
 33 39  1  6  0  0  0
 34 40  1  6  0  0  0
 36 41  1  1  0  0  0
 38 42  1  6  0  0  0
 37 43  1  1  0  0  0
 39 44  1  0  0  0  0
 44 45  1  0  0  0  0
 44 46  2  0  0  0  0
 44 47  1  0  0  0  0
  4 48  1  0  0  0  0
 48 49  1  0  0  0  0
 48 50  2  0  0  0  0
 48 51  1  0  0  0  0
M  END
> <ID>
CHEBI:60558

> <NAME>
alpha-D-Kdo-4P-(2->6)-beta-D-GlcN-4P-(1->6)-alpha-D-GlcN-1P

> <DEFINITION>
An amino trisaccharide consisting of a 3-deoxy-D-manno-oct-2-ulose residue and two glucosamine residues (one at the reducing end) in a linear sequence, with three phosphate groups attached. Isolated from the lipopolysaccharide obtained from Haemophilus influenzae.

> <STAR>
3

> <SYNONYM>
Kdo4PGlcN2P2; Kdo4P(2->6)GlcNAc4P(1->6)GlcN1P; 3-deoxy-4-O-phosphono-alpha-D-manno-oct-2-ulonosyl-(2->6)-2-amino-2-deoxy-4-O-phosphono-beta-D-glucosyl-(1->6)-2-amino-2-deoxy-1-O-phosphono-alpha-D-glucose; (GlcN)2 (Kdo)1 (P)3

> <IUPAC_NAME>
3-deoxy-4-O-phosphono-alpha-D-manno-oct-2-ulopyranonosyl-(2->6)-2-amino-2-deoxy-4-O-phosphono-beta-D-glucopyranosyl-(1->6)-2-amino-2-deoxy-1-O-phosphono-alpha-D-glucopyranose

> <FORMULA>
C20H39N2O25P3

> <MASS>
800.44330

> <MONOISOTOPIC_MASS>
800.10548

> <CHARGE>
0

> <SMILES>
[H][C@@]1(O[C@@](C[C@@H](OP(O)(O)=O)[C@H]1O)(OC[C@H]1O[C@@H](OC[C@H]2O[C@H](OP(O)(O)=O)[C@H](N)[C@@H](O)[C@@H]2O)[C@H](N)[C@@H](O)[C@@H]1OP(O)(O)=O)C(O)=O)[C@H](O)CO

> <INCHI>
InChI=1S/C20H39N2O25P3/c21-9-13(27)11(25)7(42-18(9)47-50(37,38)39)3-40-17-10(22)14(28)16(46-49(34,35)36)8(43-17)4-41-20(19(29)30)1-6(45-48(31,32)33)12(26)15(44-20)5(24)2-23/h5-18,23-28H,1-4,21-22H2,(H,29,30)(H2,31,32,33)(H2,34,35,36)(H2,37,38,39)/t5-,6-,7-,8-,9-,10-,11-,12-,13-,14-,15-,16-,17-,18-,20-/m1/s1

> <INCHIKEY>
NIQBWIDMQXULAL-ZXBQYLSCSA-N

> <KEGG_GLYCAN_ACCESSION>
G12260

> <PUBMED_CITATION>
11856357

$$$$

Marvin  11041013492D          

 51 53  0  0  1  0            999 V2000
   13.3603   -7.6941    0.0000 C   0  0  0  0  0  0  0  0  0  0  0  0
   12.6457   -6.4566    0.0000 O   0  0  0  0  0  0  0  0  0  0  0  0
   12.6459   -8.1066    0.0000 C   0  0  1  0  0  0  0  0  0  0  0  0
   12.6459   -8.9316    0.0000 O   0  0  0  0  0  0  0  0  0  0  0  0
   11.9313   -7.6941    0.0000 C   0  0  2  0  0  0  0  0  0  0  0  0
   13.3603   -6.8691    0.0000 C   0  0  2  0  0  0  0  0  0  0  0  0
   11.9313   -6.8691    0.0000 C   0  0  1  0  0  0  0  0  0  0  0  0
   11.2171   -6.4566    0.0000 C   0  0  1  0  0  0  0  0  0  0  0  0
   11.2171   -8.1066    0.0000 O   0  0  0  0  0  0  0  0  0  0  0  0
   10.5022   -6.8689    0.0000 C   0  0  0  0  0  0  0  0  0  0  0  0
   11.2172   -5.6316    0.0000 O   0  0  0  0  0  0  0  0  0  0  0  0
    9.7881   -6.4561    0.0000 O   0  0  0  0  0  0  0  0  0  0  0  0
   14.0748   -6.4566    0.0000 O   0  0  0  0  0  0  0  0  0  0  0  0
   12.6459   -5.6316    0.0000 O   0  0  0  0  0  0  0  0  0  0  0  0
   13.3603   -6.0441    0.0000 C   0  0  0  0  0  0  0  0  0  0  0  0
   14.0748   -5.6316    0.0000 O   0  0  0  0  0  0  0  0  0  0  0  0
   11.9426   -6.0391    0.0000 H   0  0  0  0  0  0  0  0  0  0  0  0
   16.9328   -6.4566    0.0000 C   0  0  1  0  0  0  0  0  0  0  0  0
   16.9328   -7.2816    0.0000 C   0  0  1  0  0  0  0  0  0  0  0  0
   16.2182   -6.0441    0.0000 O   0  0  0  0  0  0  0  0  0  0  0  0
   16.2182   -7.6941    0.0000 C   0  0  2  0  0  0  0  0  0  0  0  0
   15.5038   -6.4566    0.0000 C   0  0  1  0  0  0  0  0  0  0  0  0
   15.5038   -7.2816    0.0000 C   0  0  1  0  0  0  0  0  0  0  0  0
   17.6472   -6.0441    0.0000 O   0  0  0  0  0  0  0  0  0  0  0  0
   17.6472   -7.6941    0.0000 N   0  0  0  0  0  0  0  0  0  0  0  0
   16.2182   -8.5191    0.0000 O   0  0  0  0  0  0  0  0  0  0  0  0
   14.7893   -7.6941    0.0000 O   0  0  0  0  0  0  0  0  0  0  0  0
   14.7893   -6.0441    0.0000 C   0  0  0  0  0  0  0  0  0  0  0  0
   14.7893   -8.5191    0.0000 P   0  0  0  0  0  0  0  0  0  0  0  0
   14.0748   -8.9316    0.0000 O   0  0  0  0  0  0  0  0  0  0  0  0
   15.5038   -8.9316    0.0000 O   0  0  0  0  0  0  0  0  0  0  0  0
   14.8656   -9.3435    0.0000 O   0  0  0  0  0  0  0  0  0  0  0  0
   20.5052   -6.0441    0.0000 C   0  0  2  0  0  0  0  0  0  0  0  0
   20.5052   -6.8691    0.0000 C   0  0  1  0  0  0  0  0  0  0  0  0
   19.7906   -5.6316    0.0000 O   0  0  0  0  0  0  0  0  0  0  0  0
   19.7906   -7.2816    0.0000 C   0  0  2  0  0  0  0  0  0  0  0  0
   19.0762   -6.0441    0.0000 C   0  0  1  0  0  0  0  0  0  0  0  0
   19.0762   -6.8691    0.0000 C   0  0  1  0  0  0  0  0  0  0  0  0
   21.2196   -5.6316    0.0000 O   0  0  0  0  0  0  0  0  0  0  0  0
   21.2196   -7.2816    0.0000 N   0  0  0  0  0  0  0  0  0  0  0  0
   19.7906   -8.1066    0.0000 O   0  0  0  0  0  0  0  0  0  0  0  0
   18.3617   -7.2816    0.0000 O   0  0  0  0  0  0  0  0  0  0  0  0
   18.3617   -5.6316    0.0000 C   0  0  0  0  0  0  0  0  0  0  0  0
   21.2196   -4.8066    0.0000 P   0  0  0  0  0  0  0  0  0  0  0  0
   21.9340   -4.3941    0.0000 O   0  0  0  0  0  0  0  0  0  0  0  0
   20.5051   -4.3941    0.0000 O   0  0  0  0  0  0  0  0  0  0  0  0
   22.0165   -5.0202    0.0000 O   0  0  0  0  0  0  0  0  0  0  0  0
   11.2171   -8.9316    0.0000 P   0  0  0  0  0  0  0  0  0  0  0  0
   10.5026   -9.3441    0.0000 O   0  0  0  0  0  0  0  0  0  0  0  0
   11.9316   -9.3441    0.0000 O   0  0  0  0  0  0  0  0  0  0  0  0
   11.2934   -9.7560    0.0000 O   0  0  0  0  0  0  0  0  0  0  0  0
  3  1  1  0  0  0  0
  3  4  1  1  0  0  0
  5  3  1  0  0  0  0
  5  9  1  1  0  0  0
  6  2  1  0  0  0  0
  6  1  1  0  0  0  0
  6 13  1  6  0  0  0
  6 15  1  0  0  0  0
  7  5  1  0  0  0  0
  7  2  1  0  0  0  0
  7  8  1  0  0  0  0
  7 17  1  6  0  0  0
  8 10  1  0  0  0  0
  8 11  1  1  0  0  0
 10 12  1  0  0  0  0
 15 14  1  0  0  0  0
 15 16  2  0  0  0  0
 18 19  1  0  0  0  0
 18 20  1  0  0  0  0
 19 21  1  0  0  0  0
 20 22  1  0  0  0  0
 21 23  1  0  0  0  0
 22 23  1  0  0  0  0
 18 24  1  1  0  0  0
 19 25  1  6  0  0  0
 21 26  1  1  0  0  0
 23 27  1  6  0  0  0
 22 28  1  1  0  0  0
 13 28  1  0  0  0  0
 27 29  1  0  0  0  0
 29 30  1  0  0  0  0
 29 31  2  0  0  0  0
 29 32  1  0  0  0  0
 24 43  1  0  0  0  0
 33 34  1  0  0  0  0
 33 35  1  0  0  0  0
 34 36  1  0  0  0  0
 35 37  1  0  0  0  0
 36 38  1  0  0  0  0
 37 38  1  0  0  0  0
 33 39  1  6  0  0  0
 34 40  1  6  0  0  0
 36 41  1  1  0  0  0
 38 42  1  6  0  0  0
 37 43  1  1  0  0  0
 39 44  1  0  0  0  0
 44 45  1  0  0  0  0
 44 46  2  0  0  0  0
 44 47  1  0  0  0  0
  9 48  1  0  0  0  0
 48 49  1  0  0  0  0
 48 50  2  0  0  0  0
 48 51  1  0  0  0  0
M  END
> <ID>
CHEBI:60559

> <NAME>
alpha-D-Kdo-5P-(2->6)-beta-D-GlcN-4P-(1->6)-alpha-D-GlcN-1P

> <DEFINITION>
An amino trisaccharide consisting of a 3-deoxy-D-manno-oct-2-ulose residue and two glucosamine residues (one at the reducing end) in a linear sequence, with three phosphate groups attached. Isolated from the lipopolysaccharide obtained from Haemophilus influenzae.

> <STAR>
3

> <SYNONYM>
Kdo5P(2->6)GlcNAc4P(1->6)GlcN1P; 3-deoxy-5-O-phosphono-alpha-D-manno-oct-2-ulonosyl-(2->6)-2-amino-2-deoxy-4-O-phosphono-beta-D-glucosyl-(1->6)-2-amino-2-deoxy-1-O-phosphono-alpha-D-glucose; (GlcN)2 (Kdo)1 (P)3

> <IUPAC_NAME>
3-deoxy-5-O-phosphono-alpha-D-manno-oct-2-ulopyranonosyl-(2->6)-2-amino-2-deoxy-4-O-phosphono-beta-D-glucopyranosyl-(1->6)-2-amino-2-deoxy-1-O-phosphono-alpha-D-glucopyranose

> <FORMULA>
C20H39N2O25P3

> <MASS>
800.44330

> <MONOISOTOPIC_MASS>
800.10548

> <CHARGE>
0

> <SMILES>
[H][C@@]1(O[C@@](C[C@@H](O)[C@H]1OP(O)(O)=O)(OC[C@H]1O[C@@H](OC[C@H]2O[C@H](OP(O)(O)=O)[C@H](N)[C@@H](O)[C@@H]2O)[C@H](N)[C@@H](O)[C@@H]1OP(O)(O)=O)C(O)=O)[C@H](O)CO

> <INCHI>
InChI=1S/C20H39N2O25P3/c21-9-12(27)11(26)7(42-18(9)47-50(37,38)39)3-40-17-10(22)13(28)16(46-49(34,35)36)8(43-17)4-41-20(19(29)30)1-5(24)15(45-48(31,32)33)14(44-20)6(25)2-23/h5-18,23-28H,1-4,21-22H2,(H,29,30)(H2,31,32,33)(H2,34,35,36)(H2,37,38,39)/t5-,6-,7-,8-,9-,10-,11-,12-,13-,14-,15-,16-,17-,18-,20-/m1/s1

> <INCHIKEY>
KTPJYZKUPCOHJE-ZXBQYLSCSA-N

> <KEGG_GLYCAN_ACCESSION>
G12270

> <PUBMED_CITATION>
11856357

$$$$

Marvin  11041016012D          

 26 27  0  0  1  0            999 V2000
   15.4166   -5.0842    0.0000 C   0  0  1  0  0  0  0  0  0  0  0  0
   15.4166   -5.9092    0.0000 C   0  0  1  0  0  0  0  0  0  0  0  0
   14.7021   -4.6717    0.0000 O   0  0  0  0  0  0  0  0  0  0  0  0
   14.7021   -6.3217    0.0000 C   0  0  2  0  0  0  0  0  0  0  0  0
   13.9877   -5.0842    0.0000 C   0  0  1  0  0  0  0  0  0  0  0  0
   13.9877   -5.9092    0.0000 C   0  0  1  0  0  0  0  0  0  0  0  0
   16.1311   -4.6717    0.0000 O   0  0  0  0  0  0  0  0  0  0  0  0
   16.1311   -6.3217    0.0000 O   0  0  0  0  0  0  0  0  0  0  0  0
   14.7021   -7.1467    0.0000 O   0  0  0  0  0  0  0  0  0  0  0  0
   13.2732   -6.3217    0.0000 O   0  0  0  0  0  0  0  0  0  0  0  0
   13.2732   -4.6717    0.0000 C   0  0  0  0  0  0  0  0  0  0  0  0
   12.5587   -5.0842    0.0000 O   0  0  0  0  0  0  0  0  0  0  0  0
   11.8443   -3.8467    0.0000 O   0  0  0  0  0  0  0  0  0  0  0  0
   11.8443   -4.6717    0.0000 C   0  0  1  0  0  0  0  0  0  0  0  0
   11.1297   -5.0843    0.0000 C   0  0  1  0  0  0  0  0  0  0  0  0
   11.1297   -5.9092    0.0000 O   0  0  0  0  0  0  0  0  0  0  0  0
   10.4153   -4.6717    0.0000 C   0  0  1  0  0  0  0  0  0  0  0  0
    9.7008   -5.0842    0.0000 O   0  0  0  0  0  0  0  0  0  0  0  0
   10.4153   -3.8467    0.0000 C   0  0  2  0  0  0  0  0  0  0  0  0
    9.7009   -3.4343    0.0000 O   0  0  0  0  0  0  0  0  0  0  0  0
   11.8443   -3.0217    0.0000 H   0  0  0  0  0  0  0  0  0  0  0  0
   11.1299   -3.4342    0.0000 C   0  0  1  0  0  0  0  0  0  0  0  0
   10.4155   -2.1968    0.0000 C   0  0  0  0  0  0  0  0  0  0  0  0
   10.4155   -1.3718    0.0000 O   0  0  0  0  0  0  0  0  0  0  0  0
   11.1299   -2.6093    0.0000 C   0  0  1  0  0  0  0  0  0  0  0  0
   11.8444   -2.1969    0.0000 O   0  0  0  0  0  0  0  0  0  0  0  0
  1  2  1  0  0  0  0
  1  3  1  0  0  0  0
  2  4  1  0  0  0  0
  3  5  1  0  0  0  0
  4  6  1  0  0  0  0
  5  6  1  0  0  0  0
  1  7  1  1  0  0  0
  2  8  1  6  0  0  0
  4  9  1  1  0  0  0
  6 10  1  6  0  0  0
  5 11  1  1  0  0  0
 12 11  1  0  0  0  0
 13 22  1  0  0  0  0
 13 14  1  0  0  0  0
 22 19  1  0  0  0  0
 19 17  1  0  0  0  0
 17 15  1  0  0  0  0
 15 14  1  0  0  0  0
 14 12  1  6  0  0  0
 15 16  1  1  0  0  0
 17 18  1  1  0  0  0
 19 20  1  6  0  0  0
 22 21  1  6  0  0  0
 22 25  1  0  0  0  0
 25 23  1  0  0  0  0
 23 24  1  0  0  0  0
 25 26  1  1  0  0  0
M  END
> <ID>
CHEBI:60563

> <NAME>
D-alpha-D-Hepp-(1->6)-beta-D-Glcp

> <DEFINITION>
A glycosylglucose where the glycosyl component is D-glycero-α-D-manno-heptopyranose attached via an α-(1→6)-linkage; the epitope of the lipooligosaccharide isolated from Haemophilus ducreyi strain ITM 2665.

> <STAR>
3

> <SYNONYM>
D-glycero-alpha-D-manno-heptosyl-(1->6)-beta-D-glucose; D-alpha-D-Hep-(1->6)-beta-D-Glc; 6-O-D-glycero-alpha-D-manno-heptopyranosyl-beta-D-glucopyranose

> <IUPAC_NAME>
D-glycero-alpha-D-manno-heptopyranosyl-(1->6)-beta-D-glucopyranose

> <FORMULA>
C13H24O12

> <MASS>
372.32250

> <MONOISOTOPIC_MASS>
372.12678

> <CHARGE>
0

> <SMILES>
[H][C@@]1(O[C@H](OC[C@H]2O[C@@H](O)[C@H](O)[C@@H](O)[C@@H]2O)[C@@H](O)[C@@H](O)[C@@H]1O)[C@H](O)CO

> <INCHI>
InChI=1S/C13H24O12/c14-1-3(15)11-8(19)7(18)10(21)13(25-11)23-2-4-5(16)6(17)9(20)12(22)24-4/h3-22H,1-2H2/t3-,4-,5-,6+,7+,8+,9-,10+,11-,12-,13+/m1/s1

> <INCHIKEY>
YIJSCBWJYZFUTI-SEWDUDBHSA-N

> <PUBMED_CITATION>
9234768

$$$$

Marvin  11101012102D          

 19 19  0  0  0  0            999 V2000
    7.0308   -9.2631    0.0000 C   0  0  0  0  0  0  0  0  0  0  0  0
    6.3163   -9.6756    0.0000 C   0  0  0  0  0  0  0  0  0  0  0  0
    7.0308   -8.4382    0.0000 C   0  0  0  0  0  0  0  0  0  0  0  0
    5.6019   -9.2631    0.0000 C   0  0  0  0  0  0  0  0  0  0  0  0
    6.3164   -8.0256    0.0000 C   0  0  0  0  0  0  0  0  0  0  0  0
    5.6019   -8.4380    0.0000 C   0  0  0  0  0  0  0  0  0  0  0  0
    7.7453   -8.0257    0.0000 O   0  0  0  0  0  0  0  0  0  0  0  0
    8.4598   -8.4382    0.0000 P   0  0  0  0  0  0  0  0  0  0  0  0
    9.1744   -8.0257    0.0000 O   0  0  0  0  0  0  0  0  0  0  0  0
    8.4598   -9.2632    0.0000 O   0  0  0  0  0  0  0  0  0  0  0  0
    8.6733   -7.6413    0.0000 O   0  0  0  0  0  0  0  0  0  0  0  0
    9.8887   -8.4382    0.0000 C   0  0  0  0  0  0  0  0  0  0  0  0
   10.6033   -8.0257    0.0000 C   0  0  0  0  0  0  0  0  0  0  0  0
   11.3178   -8.4382    0.0000 N   0  3  0  0  0  0  0  0  0  0  0  0
   12.0322   -8.0257    0.0000 C   0  0  0  0  0  0  0  0  0  0  0  0
   11.3178   -9.2632    0.0000 C   0  0  0  0  0  0  0  0  0  0  0  0
   12.0322   -8.8507    0.0000 C   0  0  0  0  0  0  0  0  0  0  0  0
    4.8400   -9.7030    0.0000 N   0  3  0  0  0  0  0  0  0  0  0  0
    4.1256  -10.1155    0.0000 N   0  0  0  0  0  0  0  0  0  0  0  0
  2  1  1  0  0  0  0
  3  1  2  0  0  0  0
  4  2  2  0  0  0  0
  5  3  1  0  0  0  0
  6  4  1  0  0  0  0
  6  5  2  0  0  0  0
  3  7  1  0  0  0  0
  7  8  1  0  0  0  0
  8  9  1  0  0  0  0
  8 10  2  0  0  0  0
  8 11  1  0  0  0  0
  9 12  1  0  0  0  0
 12 13  1  0  0  0  0
 13 14  1  0  0  0  0
 14 15  1  0  0  0  0
 14 16  1  0  0  0  0
 14 17  1  0  0  0  0
  4 18  1  0  0  0  0
 18 19  3  0  0  0  0
M  CHG  2  14   1  18   1
M  END
> <ID>
CHEBI:60602

> <NAME>
4-diazoniophenylphosphorylcholine

> <DEFINITION>
A phosphocholine carrying an O-(4-diazoniophenyl) substituent.

> <STAR>
3

> <SYNONYM>
para-diazoniophenylphosphorylcholine; diazoniophenylphosphorylcholine; azophenylphosphorylcholine

> <IUPAC_NAME>
(2-{[(4-diazoniophenoxy)(hydroxy)phosphoryl]oxy}ethyl)(trimethyl)aminium

> <FORMULA>
C11H18N3O4P

> <MASS>
287.25210

> <MONOISOTOPIC_MASS>
287.10240

> <CHARGE>
2

> <SMILES>
C[N+](C)(C)CCOP(O)(=O)Oc1ccc(cc1)[N+]#N

> <INCHI>
InChI=1S/C11H17N3O4P/c1-14(2,3)8-9-17-19(15,16)18-11-6-4-10(13-12)5-7-11/h4-7H,8-9H2,1-3H3/q+1/p+1

> <INCHIKEY>
YEVTZHDPJUCYQT-UHFFFAOYSA-O

> <PUBMED_CITATION>
1010599; 7868912

$$$$

Marvin  11181009412D          

 31 33  0  0  1  0            999 V2000
   10.6500   -5.8161    0.0000 O   0  0  0  0  0  0  0  0  0  0  0  0
    9.9354   -4.5786    0.0000 C   0  0  2  0  0  0  0  0  0  0  0  0
    9.9354   -5.4035    0.0000 C   0  0  2  0  0  0  0  0  0  0  0  0
    9.2209   -4.1661    0.0000 O   0  0  0  0  0  0  0  0  0  0  0  0
    9.2210   -5.8161    0.0000 C   0  0  2  0  0  0  0  0  0  0  0  0
    8.5065   -4.5786    0.0000 C   0  0  1  0  0  0  0  0  0  0  0  0
    8.5065   -5.4036    0.0000 C   0  0  1  0  0  0  0  0  0  0  0  0
    9.2210   -6.6411    0.0000 O   0  0  0  0  0  0  0  0  0  0  0  0
    7.7920   -5.8162    0.0000 O   0  0  0  0  0  0  0  0  0  0  0  0
    7.7920   -4.1661    0.0000 C   0  0  0  0  0  0  0  0  0  0  0  0
    7.0775   -4.5787    0.0000 O   0  0  0  0  0  0  0  0  0  0  0  0
   10.6499   -4.1661    0.0000 O   0  0  0  0  0  0  0  0  0  0  0  0
   12.7933   -2.9285    0.0000 C   0  0  1  0  0  0  0  0  0  0  0  0
   12.7933   -3.7536    0.0000 C   0  0  1  0  0  0  0  0  0  0  0  0
   12.0789   -2.5159    0.0000 O   0  0  0  0  0  0  0  0  0  0  0  0
   12.0789   -4.1661    0.0000 C   0  0  1  0  0  0  0  0  0  0  0  0
   11.3645   -2.9285    0.0000 C   0  0  2  0  0  0  0  0  0  0  0  0
   11.3645   -3.7536    0.0000 C   0  0  2  0  0  0  0  0  0  0  0  0
   13.5079   -2.5159    0.0000 O   0  0  0  0  0  0  0  0  0  0  0  0
   13.5079   -4.1661    0.0000 O   0  0  0  0  0  0  0  0  0  0  0  0
   12.0789   -4.9911    0.0000 O   0  0  0  0  0  0  0  0  0  0  0  0
   10.6499   -2.5159    0.0000 C   0  0  0  0  0  0  0  0  0  0  0  0
    8.5065   -7.0536    0.0000 C   0  0  1  0  0  0  0  0  0  0  0  0
    7.7920   -6.6410    0.0000 O   0  0  0  0  0  0  0  0  0  0  0  0
    7.0775   -7.0536    0.0000 C   0  0  1  0  0  0  0  0  0  0  0  0
    7.7920   -8.2910    0.0000 C   0  0  0  0  0  0  0  0  0  0  0  0
    8.5065   -7.8786    0.0000 C   0  0  1  0  0  0  0  0  0  0  0  0
    7.0775   -7.8786    0.0000 C   0  0  1  0  0  0  0  0  0  0  0  0
    6.3631   -8.2910    0.0000 O   0  0  0  0  0  0  0  0  0  0  0  0
    9.2210   -8.2910    0.0000 O   0  0  0  0  0  0  0  0  0  0  0  0
    6.3631   -6.6411    0.0000 C   0  0  0  0  0  0  0  0  0  0  0  0
  2  3  1  0  0  0  0
  2  4  1  0  0  0  0
  3  5  1  0  0  0  0
  4  6  1  0  0  0  0
  5  7  1  0  0  0  0
  6  7  1  0  0  0  0
  3  1  1  1  0  0  0
  5  8  1  1  0  0  0
  7  9  1  6  0  0  0
  6 10  1  1  0  0  0
 11 10  1  0  0  0  0
  2 12  1  6  0  0  0
 13 14  1  0  0  0  0
 13 15  1  0  0  0  0
 14 16  1  0  0  0  0
 15 17  1  0  0  0  0
 16 18  1  0  0  0  0
 17 18  1  0  0  0  0
 13 19  1  1  0  0  0
 14 20  1  6  0  0  0
 16 21  1  6  0  0  0
 18 12  1  1  0  0  0
 17 22  1  6  0  0  0
 27 23  1  0  0  0  0
 24 23  1  0  0  0  0
 24 25  1  0  0  0  0
 25 28  1  0  0  0  0
 28 26  1  0  0  0  0
 26 27  1  0  0  0  0
 25 31  1  1  0  0  0
 27 30  1  6  0  0  0
 28 29  1  1  0  0  0
 23  8  1  6  0  0  0
M  END
> <ID>
CHEBI:60650

> <NAME>
alpha-D-Abep-(1->3)-alpha-D-Manp-(1->4)-alpha-L-Rhap

> <DEFINITION>
A linear trisaccharide, which forms part of the repeating unit of the Salmonella serogroup B oligosaccharide.

> <STAR>
3

> <SYNONYM>
alpha-D-abequosyl-(1->3)-alpha-D-mannosyl-(1->4)-alpha-L-rhamnose; alpha-D-abequopyranosyl-(1->3)-alpha-D-mannopyranosyl-(1->4)-alpha-L-rhamnopyranose; alpha-D-Abe-(1->3)-alpha-D-Man-(1->4)-alpha-L-Rha; 3,6-dideoxy-alpha-D-xylo-hexosyl-(1->3)-alpha-D-mannosyl-(1->4)-alpha-L-rhamnose; 3,6-dideoxy-alpha-D-xylo-hexopyranosyl-(1->3)-alpha-D-mannopyranosyl-(1->4)-6-deoxy-alpha-L-mannopyranose

> <IUPAC_NAME>
3,6-dideoxy-alpha-D-xylo-hexopyranosyl-(1->3)-alpha-D-mannopyranosyl-(1->4)-alpha-L-rhamnopyranose

> <FORMULA>
C18H32O13

> <MASS>
456.43890

> <MONOISOTOPIC_MASS>
456.18429

> <CHARGE>
0

> <SMILES>
C[C@H]1O[C@H](O[C@H]2[C@H](O)[C@@H](CO)O[C@H](O[C@H]3[C@H](C)O[C@@H](O)[C@H](O)[C@@H]3O)[C@H]2O)[C@H](O)C[C@H]1O

> <INCHI>
InChI=1S/C18H32O13/c1-5-7(20)3-8(21)17(28-5)31-15-10(22)9(4-19)29-18(13(15)25)30-14-6(2)27-16(26)12(24)11(14)23/h5-26H,3-4H2,1-2H3/t5-,6+,7-,8-,9-,10-,11+,12-,13+,14+,15+,16-,17-,18-/m1/s1

> <INCHIKEY>
OACNEKMQXUEJNI-XTJUUCMTSA-N

> <PUBMED_CITATION>
1378926

$$$$

Marvin  11261016162D          

 18 18  0  0  0  0            999 V2000
    7.8140   -7.7569    0.0000 C   0  0  0  0  0  0  0  0  0  0  0  0
    7.0995   -8.1694    0.0000 C   0  0  0  0  0  0  0  0  0  0  0  0
    7.8140   -9.4068    0.0000 C   0  0  0  0  0  0  0  0  0  0  0  0
    8.5285   -8.9944    0.0000 C   0  0  0  0  0  0  0  0  0  0  0  0
    8.5285   -8.1694    0.0000 C   0  0  0  0  0  0  0  0  0  0  0  0
   10.6719   -7.7569    0.0000 C   0  0  0  0  0  0  0  0  0  0  0  0
   11.3862   -8.1694    0.0000 C   0  0  0  0  0  0  0  0  0  0  0  0
   12.1007   -6.9319    0.0000 C   0  0  0  0  0  0  0  0  0  0  0  0
   12.8152   -6.5194    0.0000 C   0  0  0  0  0  0  0  0  0  0  0  0
   12.8152   -8.1694    0.0000 C   0  0  0  0  0  0  0  0  0  0  0  0
   13.5297   -7.7569    0.0000 C   0  0  0  0  0  0  0  0  0  0  0  0
    7.0995   -8.9944    0.0000 C   0  0  0  0  0  0  0  0  0  0  0  0
    6.3851   -9.4068    0.0000 N   0  0  0  0  0  0  0  0  0  0  0  0
    9.9574   -8.1694    0.0000 N   0  0  0  0  0  0  0  0  0  0  0  0
   12.1007   -7.7569    0.0000 N   0  0  0  0  0  0  0  0  0  0  0  0
    9.2429   -7.7569    0.0000 C   0  0  0  0  0  0  0  0  0  0  0  0
    9.2429   -6.9319    0.0000 O   0  0  0  0  0  0  0  0  0  0  0  0
    5.6707   -8.9944    0.0000 O   0  0  0  0  0  0  0  0  0  0  0  0
  1  2  1  0  0  0  0
  1  5  2  0  0  0  0
  2 12  2  0  0  0  0
 12  3  1  0  0  0  0
  3  4  2  0  0  0  0
  4  5  1  0  0  0  0
  5 16  1  0  0  0  0
 16 14  1  0  0  0  0
 14  6  1  0  0  0  0
  6  7  1  0  0  0  0
  7 15  1  0  0  0  0
 15  8  1  0  0  0  0
  8  9  1  0  0  0  0
 15 10  1  0  0  0  0
 10 11  1  0  0  0  0
 12 13  1  0  0  0  0
 16 17  2  0  0  0  0
 13 18  2  0  0  0  0
M  END
> <ID>
CHEBI:60729

> <NAME>
4-nitrosoprocainamide

> <DEFINITION>
A benzamide obtained via formal condensation of 4-nitrosobenzoic acid and 2-(diethylamino)ethylamine.

> <STAR>
3

> <SYNONYM>
NOPA; nitrosoprocainamide

> <IUPAC_NAME>
N-[2-(diethylamino)ethyl]-4-nitrosobenzamide

> <FORMULA>
C13H19N3O2

> <MASS>
249.30890

> <MONOISOTOPIC_MASS>
249.14773

> <CHARGE>
0

> <SMILES>
CCN(CC)CCNC(=O)c1ccc(cc1)N=O

> <INCHI>
InChI=1S/C13H19N3O2/c1-3-16(4-2)10-9-14-13(17)11-5-7-12(15-18)8-6-11/h5-8H,3-4,9-10H2,1-2H3,(H,14,17)

> <INCHIKEY>
HVBDBNBRWGIRLT-UHFFFAOYSA-N

> <CAS_REGISTRY_NUMBER>
95576-28-6

> <REAXYS_REGISTRY_NUMBER>
8983423

> <CHEMIDPLUS>
95576-28-6

> <PUBMED_CITATION>
10368311; 8253539

$$$$

Marvin  11261016402D          

 37 40  0  0  1  0            999 V2000
   16.1652   -9.6947    0.0000 O   0  0  0  0  0  0  0  0  0  0  0  0
   15.4976  -10.1798    0.0000 C   0  0  1  0  0  0  0  0  0  0  0  0
   16.8326  -10.1798    0.0000 C   0  0  2  0  0  0  0  0  0  0  0  0
   17.6172   -9.9247    0.0000 O   0  0  0  0  0  0  0  0  0  0  0  0
   16.5776  -10.9643    0.0000 C   0  0  1  0  0  0  0  0  0  0  0  0
   17.0625  -11.6319    0.0000 O   0  0  0  0  0  0  0  0  0  0  0  0
   15.7525  -10.9643    0.0000 C   0  0  2  0  0  0  0  0  0  0  0  0
   15.2676  -11.6319    0.0000 O   0  0  0  0  0  0  0  0  0  0  0  0
   14.7130   -9.9248    0.0000 C   0  0  0  0  0  0  0  0  0  0  0  0
   14.0998  -10.4768    0.0000 O   0  0  0  0  0  0  0  0  0  0  0  0
   12.6975   -9.7598    0.0000 O   0  0  0  0  0  0  0  0  0  0  0  0
   12.0300  -10.2447    0.0000 C   0  0  1  0  0  0  0  0  0  0  0  0
   13.3648  -10.2447    0.0000 C   0  0  1  0  0  0  0  0  0  0  0  0
   13.1099  -11.0292    0.0000 C   0  0  1  0  0  0  0  0  0  0  0  0
   13.5948  -11.6969    0.0000 O   0  0  0  0  0  0  0  0  0  0  0  0
   12.2849  -11.0292    0.0000 C   0  0  2  0  0  0  0  0  0  0  0  0
   11.8000  -11.6969    0.0000 O   0  0  0  0  0  0  0  0  0  0  0  0
   11.2454   -9.9898    0.0000 C   0  0  0  0  0  0  0  0  0  0  0  0
   10.5309  -10.4023    0.0000 O   0  0  0  0  0  0  0  0  0  0  0  0
    9.1538   -9.6480    0.0000 O   0  0  0  0  0  0  0  0  0  0  0  0
    8.4864  -10.1328    0.0000 C   0  0  1  0  0  0  0  0  0  0  0  0
    9.8213  -10.1328    0.0000 C   0  0  1  0  0  0  0  0  0  0  0  0
    9.5663  -10.9174    0.0000 C   0  0  1  0  0  0  0  0  0  0  0  0
   10.0512  -11.9527    0.0000 O   0  0  0  0  0  0  0  0  0  0  0  0
    8.7413  -10.9174    0.0000 C   0  0  2  0  0  0  0  0  0  0  0  0
    8.2564  -11.5849    0.0000 O   0  0  0  0  0  0  0  0  0  0  0  0
    7.7017   -9.8779    0.0000 C   0  0  0  0  0  0  0  0  0  0  0  0
    7.0885  -10.4299    0.0000 O   0  0  0  0  0  0  0  0  0  0  0  0
    8.8233  -12.3011    0.0000 O   0  0  0  0  0  0  0  0  0  0  0  0
    8.1559  -12.7860    0.0000 C   0  0  1  0  0  0  0  0  0  0  0  0
    9.4908  -12.7860    0.0000 C   0  0  2  0  0  0  0  0  0  0  0  0
    9.2358  -13.5706    0.0000 C   0  0  1  0  0  0  0  0  0  0  0  0
    9.7207  -14.2381    0.0000 O   0  0  0  0  0  0  0  0  0  0  0  0
    8.4107  -13.5706    0.0000 C   0  0  2  0  0  0  0  0  0  0  0  0
    7.9259  -14.2381    0.0000 O   0  0  0  0  0  0  0  0  0  0  0  0
    7.3712  -12.5311    0.0000 C   0  0  0  0  0  0  0  0  0  0  0  0
    6.7580  -13.0831    0.0000 O   0  0  0  0  0  0  0  0  0  0  0  0
  1  2  1  0  0  0  0
  1  3  1  0  0  0  0
  2  7  1  0  0  0  0
  2  9  1  1  0  0  0
  5  3  1  0  0  0  0
  3  4  1  6  0  0  0
  7  5  1  0  0  0  0
  5  6  1  1  0  0  0
  7  8  1  6  0  0  0
  9 10  1  0  0  0  0
 11 12  1  0  0  0  0
 11 13  1  0  0  0  0
 12 16  1  0  0  0  0
 14 13  1  0  0  0  0
 13 10  1  6  0  0  0
 16 14  1  0  0  0  0
 14 15  1  1  0  0  0
 16 17  1  6  0  0  0
 12 18  1  1  0  0  0
 20 21  1  0  0  0  0
 20 22  1  0  0  0  0
 21 25  1  0  0  0  0
 21 27  1  1  0  0  0
 23 22  1  0  0  0  0
 25 23  1  0  0  0  0
 23 24  1  1  0  0  0
 25 26  1  6  0  0  0
 27 28  1  0  0  0  0
 29 30  1  0  0  0  0
 29 31  1  0  0  0  0
 30 34  1  0  0  0  0
 30 36  1  1  0  0  0
 32 31  1  0  0  0  0
 31 24  1  1  0  0  0
 34 32  1  0  0  0  0
 32 33  1  1  0  0  0
 34 35  1  6  0  0  0
 36 37  1  0  0  0  0
 22 19  1  6  0  0  0
 18 19  1  0  0  0  0
M  END
> <ID>
CHEBI:60730

> <NAME>
beta-D-Araf-(1->2)-alpha-D-Araf-(1->5)-alpha-D-Araf-(1->5)-alpha-D-Araf

> <DEFINITION>
An arabinotetraose in which the four arabinofuranose residues are in a β(1→2), α(1→5) and α(1→5) linear sequence (with α-configuration at the reducing end). Corresponds to part of the lipoarabinomannam from Mycobacterium leprae and M. tuberculosis.

> <STAR>
3

> <SYNONYM>
beta-D-arabinosyl-(1->2)-alpha-D-arabinosyl-(1->5)-alpha-D-arabinosyl-(1->5)-alpha-D-arabinose; beta-D-Ara-(1->2)-alpha-D-Ara-(1->5)-alpha-D-Ara-(1->5)-alpha-D-Ara

> <IUPAC_NAME>
beta-D-arabinofuranosyl-(1->2)-alpha-D-arabinofuranosyl-(1->5)-alpha-D-arabinofuranosyl-(1->5)-alpha-D-arabinofuranose

> <FORMULA>
C20H34O17

> <MASS>
546.47380

> <MONOISOTOPIC_MASS>
546.17960

> <CHARGE>
0

> <SMILES>
OC[C@H]1O[C@@H](O[C@H]2[C@H](O)[C@@H](CO)O[C@@H]2OC[C@H]2O[C@H](OC[C@H]3O[C@H](O)[C@@H](O)[C@@H]3O)[C@@H](O)[C@@H]2O)[C@@H](O)[C@@H]1O

> <INCHI>
InChI=1S/C20H34O17/c21-1-5-9(23)15(29)19(34-5)37-16-12(26)6(2-22)35-20(16)32-4-8-11(25)14(28)18(36-8)31-3-7-10(24)13(27)17(30)33-7/h5-30H,1-4H2/t5-,6-,7-,8-,9-,10-,11-,12-,13+,14+,15+,16+,17+,18+,19+,20+/m1/s1

> <INCHIKEY>
PJDCJQUYCYVCJH-XDTRJWEISA-N

> <PUBMED_CITATION>
12368438; 29610143

$$$$

Marvin  11301014282D          

 17 18  0  0  1  0            999 V2000
   10.3702   -5.3393    0.0000 C   0  0  2  0  0  0  0  0  0  0  0  0
   10.3702   -4.5143    0.0000 N   0  0  0  0  0  0  0  0  0  0  0  0
    9.7029   -5.8243    0.0000 O   0  0  0  0  0  0  0  0  0  0  0  0
   11.0377   -5.8243    0.0000 C   0  0  0  0  0  0  0  0  0  0  0  0
   11.0848   -4.1018    0.0000 C   0  0  0  0  0  0  0  0  0  0  0  0
    9.6558   -4.1018    0.0000 C   0  0  0  0  0  0  0  0  0  0  0  0
    9.9577   -6.6088    0.0000 C   0  0  1  0  0  0  0  0  0  0  0  0
   10.7827   -6.6088    0.0000 C   0  0  1  0  0  0  0  0  0  0  0  0
   11.0848   -3.2768    0.0000 N   0  0  0  0  0  0  0  0  0  0  0  0
   11.7993   -4.5143    0.0000 O   0  0  0  0  0  0  0  0  0  0  0  0
    9.6558   -3.2768    0.0000 C   0  0  0  0  0  0  0  0  0  0  0  0
   11.2678   -7.2763    0.0000 O   0  0  0  0  0  0  0  0  0  0  0  0
   10.3702   -2.8643    0.0000 C   0  0  0  0  0  0  0  0  0  0  0  0
    9.4729   -7.2763    0.0000 C   0  0  0  0  0  0  0  0  0  0  0  0
    9.8084   -8.0300    0.0000 O   0  0  0  0  0  0  0  0  0  0  0  0
   10.3702   -2.0393    0.0000 O   0  0  0  0  0  0  0  0  0  0  0  0
    8.9414   -2.8643    0.0000 F   0  0  0  0  0  0  0  0  0  0  0  0
  1  2  1  1  0  0  0
  1  3  1  0  0  0  0
  1  4  1  0  0  0  0
  2  5  1  0  0  0  0
  2  6  1  0  0  0  0
  3  7  1  0  0  0  0
  4  8  1  0  0  0  0
  5  9  1  0  0  0  0
  5 10  2  0  0  0  0
  6 11  2  0  0  0  0
  7 14  1  1  0  0  0
  8 12  1  6  0  0  0
  9 13  1  0  0  0  0
 13 16  2  0  0  0  0
  7  8  1  0  0  0  0
 11 13  1  0  0  0  0
 14 15  1  0  0  0  0
 11 17  1  0  0  0  0
M  END
> <ID>
CHEBI:60761

> <NAME>
floxuridine

> <DEFINITION>
A pyrimidine 2'-deoxyribonucleoside compound having 5-fluorouracil as the nucleobase; used to treat hepatic metastases of gastrointestinal adenocarcinomas and for palliation in malignant neoplasms of the liver and gastrointestinal tract.

> <STAR>
3

> <SYNONYM>
Fluoruridine Deoxyribose; Fluoruridine deoxyribose; Fluorodeoxyuridine; Floxuridine; Floxuridin; FdU; Deoxyfluorouridine; beta-5-Fluoro-2'-deoxyuridine; 5FDU; 5-Fluorouracil deoxyriboside; 5-Fluorouracil 2'-deoxyriboside; 5-Fluorodeoxyuridine; 5-Fluoro-2-desoxyuridine; 5-fluoro-2'-deoxyuridine; 2'-Deoxy-5-fluorouridine; 1beta-D-2'-Deoxyribofuranosyl-5-flurouracil; 1-beta-D-2'-Deoxyribofuranosyl-5-flurouracil; 1-(2-Deoxy-beta-D-ribofuranosyl)-5-fluorouracil

> <IUPAC_NAME>
5-fluoro-2'-deoxyuridine

> <INN>
floxuridinum; floxuridine; floxiridina

> <FORMULA>
C9H11FN2O5

> <MASS>
246.19240

> <MONOISOTOPIC_MASS>
246.06520

> <CHARGE>
0

> <SMILES>
OC[C@H]1O[C@H](C[C@@H]1O)n1cc(F)c(=O)[nH]c1=O

> <INCHI>
InChI=1S/C9H11FN2O5/c10-4-2-12(9(16)11-8(4)15)7-1-5(14)6(3-13)17-7/h2,5-7,13-14H,1,3H2,(H,11,15,16)/t5-,6+,7+/m0/s1

> <INCHIKEY>
ODKNJVUHOIMIIZ-RRKCRQDMSA-N

> <CAS_REGISTRY_NUMBER>
50-91-9

> <REAXYS_REGISTRY_NUMBER>
90221

> <CHEMIDPLUS>
50-91-9

> <DRUGBANK_ACCESSION>
DB00322

> <HMDB_ACCESSION>
HMDB0014467

> <KEGG_COMPOUND_ACCESSION>
C11736

> <KEGG_DRUG_ACCESSION>
D04197

> <LINCS_ACCESSION>
LSM-5588

> <NIST_CHEMISTRY_WEBBOOK>
50-91-9

> <WIKIPEDIA_ACCESSION>
Floxuridine

> <PUBMED_CITATION>
12520460; 19744858; 19917528; 20218622; 20363130; 20391188; 28166217; 29438107; 3950402

$$$$

Marvin  11301016092D          

 11 11  0  0  0  0            999 V2000
   10.5588   -5.9812    0.0000 N   0  0  0  0  0  0  0  0  0  0  0  0
   11.2734   -5.5686    0.0000 C   0  0  0  0  0  0  0  0  0  0  0  0
    9.8444   -5.5686    0.0000 C   0  0  0  0  0  0  0  0  0  0  0  0
   11.2734   -4.7436    0.0000 N   0  0  0  0  0  0  0  0  0  0  0  0
   11.9878   -5.9812    0.0000 O   0  0  0  0  0  0  0  0  0  0  0  0
    9.8444   -4.7436    0.0000 C   0  0  0  0  0  0  0  0  0  0  0  0
   10.5588   -4.3312    0.0000 C   0  0  0  0  0  0  0  0  0  0  0  0
   10.5588   -3.5062    0.0000 O   0  0  0  0  0  0  0  0  0  0  0  0
    9.1300   -4.3312    0.0000 N   0  3  0  0  0  0  0  0  0  0  0  0
    9.1299   -3.5062    0.0000 O   0  5  0  0  0  0  0  0  0  0  0  0
    8.4155   -4.7437    0.0000 O   0  0  0  0  0  0  0  0  0  0  0  0
  1  2  1  0  0  0  0
  1  3  1  0  0  0  0
  2  4  1  0  0  0  0
  2  5  2  0  0  0  0
  3  6  2  0  0  0  0
  4  7  1  0  0  0  0
  7  8  2  0  0  0  0
  6  7  1  0  0  0  0
 10  9  1  0  0  0  0
 11  9  2  0  0  0  0
  6  9  1  0  0  0  0
M  CHG  2   9   1  10  -1
M  END
> <ID>
CHEBI:60763

> <NAME>
5-nitrouracil

> <DEFINITION>
A C-nitro compound consisting of uracil having a nitro group at the 5-position.

> <STAR>
3

> <IUPAC_NAME>
5-nitropyrimidine-2,4(1H,3H)-dione

> <FORMULA>
C4H3N3O4

> <MASS>
157.08430

> <MONOISOTOPIC_MASS>
157.01236

> <CHARGE>
0

> <SMILES>
[O-][N+](=O)c1c[nH]c(=O)[nH]c1=O

> <INCHI>
InChI=1S/C4H3N3O4/c8-3-2(7(10)11)1-5-4(9)6-3/h1H,(H2,5,6,8,9)

> <INCHIKEY>
TUARVSWVPPVUGS-UHFFFAOYSA-N

> <REAXYS_REGISTRY_NUMBER>
10410

> <PUBMED_CITATION>
10513989; 11456133; 3950402

$$$$

Marvin  01101114582D          

 35 38  0  0  1  0            999 V2000
    9.2504   -7.2647    0.0000 O   0  0  0  0  0  0  0  0  0  0  0  0
    9.8570   -6.6722    0.0000 C   0  0  1  0  0  0  0  0  0  0  0  0
    9.6735   -5.8678    0.0000 C   0  0  1  0  0  0  0  0  0  0  0  0
   10.6453   -6.9155    0.0000 C   0  0  0  0  0  0  0  0  0  0  0  0
   11.2502   -6.3544    0.0000 C   0  0  1  0  0  0  0  0  0  0  0  0
   10.2784   -5.3068    0.0000 O   0  0  0  0  0  0  0  0  0  0  0  0
   11.0668   -5.5500    0.0000 C   0  0  2  0  0  0  0  0  0  0  0  0
   11.9936   -6.7124    0.0000 O   0  0  0  0  0  0  0  0  0  0  0  0
   12.7370   -6.3545    0.0000 C   0  0  1  0  0  0  0  0  0  0  0  0
   11.5813   -4.9051    0.0000 C   0  0  2  0  0  0  0  0  0  0  0  0
   12.4064   -4.9051    0.0000 C   0  0  1  0  0  0  0  0  0  0  0  0
   12.9207   -5.5503    0.0000 C   0  0  2  0  0  0  0  0  0  0  0  0
   13.3417   -6.9158    0.0000 C   0  0  2  0  0  0  0  0  0  0  0  0
   14.1301   -6.6726    0.0000 C   0  0  1  0  0  0  0  0  0  0  0  0
   13.7091   -5.3072    0.0000 O   0  0  0  0  0  0  0  0  0  0  0  0
   14.3138   -5.8684    0.0000 C   0  0  1  0  0  0  0  0  0  0  0  0
   14.4192   -5.1416    0.0000 O   0  0  0  0  0  0  0  0  0  0  0  0
   14.9724   -6.1933    0.0000 C   0  0  0  0  0  0  0  0  0  0  0  0
   15.1432   -5.0173    0.0000 C   0  0  0  0  0  0  0  0  0  0  0  0
   15.4851   -5.6672    0.0000 C   0  0  1  0  0  0  0  0  0  0  0  0
   10.1535   -7.5530    0.0000 H   0  0  0  0  0  0  0  0  0  0  0  0
   11.3714   -7.2741    0.0000 H   0  0  0  0  0  0  0  0  0  0  0  0
   13.3067   -7.7222    0.0000 C   0  0  0  0  0  0  0  0  0  0  0  0
   12.7534   -4.1883    0.0000 O   0  0  0  0  0  0  0  0  0  0  0  0
    9.6231   -4.9586    0.0000 H   0  0  0  0  0  0  0  0  0  0  0  0
   10.7626   -4.7303    0.0000 H   0  0  0  0  0  0  0  0  0  0  0  0
   13.1772   -4.7859    0.0000 H   0  0  0  0  0  0  0  0  0  0  0  0
   11.2188   -4.1007    0.0000 C   0  0  0  0  0  0  0  0  0  0  0  0
   14.6581   -7.0853    0.0000 C   0  0  0  0  0  0  0  0  0  0  0  0
   16.1271   -5.6454    0.0000 O   0  0  0  0  0  0  0  0  0  0  0  0
   12.5422   -7.1640    0.0000 H   0  0  0  0  0  0  0  0  0  0  0  0
    8.9370   -5.4960    0.0000 C   0  0  0  0  0  0  0  0  0  0  0  0
    8.2468   -5.9479    0.0000 C   0  0  0  0  0  0  0  0  0  0  0  0
    7.5103   -5.5761    0.0000 C   0  0  0  0  0  0  0  0  0  0  0  0
    8.2931   -6.7716    0.0000 O   0  0  0  0  0  0  0  0  0  0  0  0
  2  1  1  0  0  0  0
  4  2  1  0  0  0  0
  3  2  1  0  0  0  0
  5  4  1  0  0  0  0
  6  3  1  0  0  0  0
  7  6  1  0  0  0  0
  8  5  1  0  0  0  0
  7  5  1  0  0  0  0
  9  8  1  0  0  0  0
 10  7  1  0  0  0  0
 11 10  1  0  0  0  0
 12 11  1  0  0  0  0
 13  9  1  0  0  0  0
 12  9  1  0  0  0  0
 14 13  1  0  0  0  0
 15 12  1  0  0  0  0
 16 14  1  0  0  0  0
 16 15  1  0  0  0  0
 16 17  1  1  0  0  0
 18 16  1  0  0  0  0
 19 17  1  0  0  0  0
 20 18  1  0  0  0  0
 20 19  1  0  0  0  0
  2 21  1  6  0  0  0
  5 22  1  6  0  0  0
 13 23  1  6  0  0  0
 11 24  1  6  0  0  0
  3 25  1  1  0  0  0
  7 26  1  1  0  0  0
 12 27  1  1  0  0  0
 10 28  1  1  0  0  0
 14 29  1  1  0  0  0
 20 30  1  1  0  0  0
  9 31  1  6  0  0  0
  3 32  1  0  0  0  0
 32 33  1  0  0  0  0
 33 34  1  0  0  0  0
 33 35  2  0  0  0  0
M  END
> <ID>
CHEBI:60927

> <NAME>
ciguatoxin JKLM ring fragment

> <DEFINITION>
A polycyclic ether comprising a central oxepine ring flanked by two fused tetrahydropyran rings together with a spiro-fused tetrahydrofuran ring. Corresponds to the JKLM ring fragment and epitope of ciguatoxin.

> <STAR>
3

> <SYNONYM>
JKLM ring

> <IUPAC_NAME>
1-[(2R,3S,4S,4'S,4aR,5aS,7R,8S,9aR,10S,11S,11aS)-4',7,11-trihydroxy-3,4,10-trimethyldodecahydro-3H,3'H-spiro[dipyrano[3,2-b:2',3'-f]oxepine-2,2'-furan]-8-yl]acetone

> <FORMULA>
C21H34O8

> <MASS>
414.48990

> <MONOISOTOPIC_MASS>
414.22537

> <CHARGE>
0

> <SMILES>
[H][C@@]1(O)C[C@]2([H])O[C@]3([H])[C@@H](C)[C@H](C)[C@@]4(C[C@H](O)CO4)O[C@@]3([H])[C@@H](O)[C@H](C)[C@@]2([H])O[C@@]1([H])CC(C)=O

> <INCHI>
InChI=1S/C21H34O8/c1-9(22)5-15-14(24)6-16-18(27-15)11(3)17(25)20-19(28-16)10(2)12(4)21(29-20)7-13(23)8-26-21/h10-20,23-25H,5-8H2,1-4H3/t10-,11-,12-,13-,14+,15-,16-,17-,18+,19+,20-,21+/m0/s1

> <INCHIKEY>
PTJQHYLZWMYMGL-AWQRKESRSA-N

> <PUBMED_CITATION>
18348309

$$$$

Marvin  01101115382D          

 37 39  0  0  1  0            999 V2000
   10.5015   -6.2372    0.0000 C   0  0  2  0  0  0  0  0  0  0  0  0
   10.5015   -7.0622    0.0000 C   0  0  1  0  0  0  0  0  0  0  0  0
    9.7870   -5.8247    0.0000 O   0  0  0  0  0  0  0  0  0  0  0  0
    9.7870   -7.4748    0.0000 C   0  0  2  0  0  0  0  0  0  0  0  0
    9.0725   -6.2372    0.0000 C   0  0  1  0  0  0  0  0  0  0  0  0
    9.0725   -7.0622    0.0000 C   0  0  2  0  0  0  0  0  0  0  0  0
   11.2160   -5.8247    0.0000 O   0  0  0  0  0  0  0  0  0  0  0  0
   11.2160   -7.4748    0.0000 O   0  0  0  0  0  0  0  0  0  0  0  0
    9.7869   -8.2998    0.0000 O   0  0  0  0  0  0  0  0  0  0  0  0
    8.3581   -7.4748    0.0000 O   0  0  0  0  0  0  0  0  0  0  0  0
    8.3581   -5.8247    0.0000 C   0  0  0  0  0  0  0  0  0  0  0  0
    7.6436   -6.2372    0.0000 O   0  0  0  0  0  0  0  0  0  0  0  0
   13.3594   -4.5872    0.0000 C   0  0  1  0  0  0  0  0  0  0  0  0
   13.3594   -5.4122    0.0000 C   0  0  1  0  0  0  0  0  0  0  0  0
   12.6449   -4.1747    0.0000 O   0  0  0  0  0  0  0  0  0  0  0  0
   12.6449   -5.8247    0.0000 C   0  0  2  0  0  0  0  0  0  0  0  0
   11.9305   -4.5872    0.0000 C   0  0  1  0  0  0  0  0  0  0  0  0
   11.9305   -5.4122    0.0000 C   0  0  2  0  0  0  0  0  0  0  0  0
   14.0739   -4.1747    0.0000 O   0  0  0  0  0  0  0  0  0  0  0  0
   14.0739   -5.8247    0.0000 N   0  0  0  0  0  0  0  0  0  0  0  0
   12.6449   -6.6497    0.0000 O   0  0  0  0  0  0  0  0  0  0  0  0
   11.2160   -4.1747    0.0000 C   0  0  0  0  0  0  0  0  0  0  0  0
   10.5015   -4.5872    0.0000 O   0  0  0  0  0  0  0  0  0  0  0  0
   14.7885   -2.1122    0.0000 C   0  0  0  0  0  0  0  0  0  0  0  0
   14.7885   -2.9372    0.0000 C   0  0  1  0  0  0  0  0  0  0  0  0
   14.0739   -1.6997    0.0000 O   0  0  0  0  0  0  0  0  0  0  0  0
   14.0739   -3.3497    0.0000 C   0  0  2  0  0  0  0  0  0  0  0  0
   13.3595   -2.1122    0.0000 C   0  0  1  0  0  0  0  0  0  0  0  0
   13.3595   -2.9372    0.0000 C   0  0  2  0  0  0  0  0  0  0  0  0
   15.5029   -1.6997    0.0000 O   0  0  0  0  0  0  0  0  0  0  0  0
   15.5029   -3.3497    0.0000 O   0  0  0  0  0  0  0  0  0  0  0  0
   12.6450   -3.3497    0.0000 O   0  0  0  0  0  0  0  0  0  0  0  0
   12.6450   -1.6997    0.0000 C   0  0  0  0  0  0  0  0  0  0  0  0
   11.9305   -2.1122    0.0000 O   0  0  0  0  0  0  0  0  0  0  0  0
   14.0739   -6.6497    0.0000 C   0  0  0  0  0  0  0  0  0  0  0  0
   14.7884   -7.0623    0.0000 O   0  0  0  0  0  0  0  0  0  0  0  0
   13.3594   -7.0622    0.0000 C   0  0  0  0  0  0  0  0  0  0  0  0
  1  2  1  0  0  0  0
  1  3  1  0  0  0  0
  2  4  1  0  0  0  0
  3  5  1  0  0  0  0
  4  6  1  0  0  0  0
  5  6  1  0  0  0  0
  1  7  1  6  0  0  0
  2  8  1  6  0  0  0
  4  9  1  1  0  0  0
  6 10  1  1  0  0  0
  5 11  1  1  0  0  0
 12 11  1  0  0  0  0
 13 14  1  0  0  0  0
 13 15  1  0  0  0  0
 14 16  1  0  0  0  0
 15 17  1  0  0  0  0
 16 18  1  0  0  0  0
 17 18  1  0  0  0  0
 13 19  1  1  0  0  0
 14 20  1  6  0  0  0
 16 21  1  1  0  0  0
 18  7  1  1  0  0  0
 17 22  1  1  0  0  0
 23 22  1  0  0  0  0
 24 25  1  0  0  0  0
 24 26  1  0  0  0  0
 25 27  1  0  0  0  0
 26 28  1  0  0  0  0
 27 29  1  0  0  0  0
 28 29  1  0  0  0  0
 24 30  1  0  0  0  0
 25 31  1  6  0  0  0
 27 19  1  1  0  0  0
 29 32  1  1  0  0  0
 28 33  1  1  0  0  0
 34 33  1  0  0  0  0
 36 35  2  0  0  0  0
 37 35  1  0  0  0  0
 20 35  1  0  0  0  0
M  END
> <ID>
CHEBI:60928

> <NAME>
alpha-D-Galp-(1->4)-beta-D-GalpNAc-(1->3)-D-Galp

> <DEFINITION>
An amino trisaccharide comprising an N-acetyl β-D-galactosaminyl residue flanked by two D-galactopyranose residues (one at the reducing end).

> <STAR>
3

> <SYNONYM>
NOR-tri; Galalpha1-4GalNAcbeta1-3Gal; Gal-alpha-1->4-GalNAc-beta-1->3-Gal; alpha-D-Gal-(1->4)-beta-D-GalNAc-(1->3)-D-Gal

> <IUPAC_NAME>
alpha-D-galactopyranosyl-(1->4)-2-acetamido-2-deoxy-beta-D-galactopyranosyl-(1->3)-D-galactopyranose

> <FORMULA>
C20H35NO16

> <MASS>
545.48900

> <MONOISOTOPIC_MASS>
545.19558

> <CHARGE>
0

> <SMILES>
CC(=O)N[C@@H]1[C@@H](O)[C@@H](O[C@H]2O[C@H](CO)[C@H](O)[C@H](O)[C@H]2O)[C@@H](CO)O[C@H]1O[C@@H]1[C@@H](O)C(O)O[C@H](CO)[C@@H]1O

> <INCHI>
InChI=1S/C20H35NO16/c1-5(25)21-9-12(28)16(36-20-14(30)13(29)10(26)6(2-22)34-20)8(4-24)35-19(9)37-17-11(27)7(3-23)33-18(32)15(17)31/h6-20,22-24,26-32H,2-4H2,1H3,(H,21,25)/t6-,7-,8-,9-,10+,11+,12-,13+,14-,15-,16+,17+,18?,19+,20-/m1/s1

> <INCHIKEY>
VGVHVNDLCYSGNE-XOGYUZJNSA-N

> <REAXYS_REGISTRY_NUMBER>
9310401

> <PUBMED_CITATION>
12350319; 12626386; 17006649

$$$$

Marvin  01101116092D          

 26 27  0  0  1  0            999 V2000
   10.5015   -6.2372    0.0000 C   0  0  2  0  0  0  0  0  0  0  0  0
   10.5015   -7.0622    0.0000 C   0  0  1  0  0  0  0  0  0  0  0  0
    9.7870   -5.8247    0.0000 O   0  0  0  0  0  0  0  0  0  0  0  0
    9.7870   -7.4748    0.0000 C   0  0  2  0  0  0  0  0  0  0  0  0
    9.0725   -6.2372    0.0000 C   0  0  1  0  0  0  0  0  0  0  0  0
    9.0725   -7.0622    0.0000 C   0  0  2  0  0  0  0  0  0  0  0  0
   11.2160   -5.8247    0.0000 O   0  0  0  0  0  0  0  0  0  0  0  0
   11.2160   -7.4748    0.0000 O   0  0  0  0  0  0  0  0  0  0  0  0
    9.7869   -8.2998    0.0000 O   0  0  0  0  0  0  0  0  0  0  0  0
    8.3581   -7.4748    0.0000 O   0  0  0  0  0  0  0  0  0  0  0  0
    8.3581   -5.8247    0.0000 C   0  0  0  0  0  0  0  0  0  0  0  0
    7.6436   -6.2372    0.0000 O   0  0  0  0  0  0  0  0  0  0  0  0
   13.3594   -4.5872    0.0000 C   0  0  0  0  0  0  0  0  0  0  0  0
   13.3594   -5.4122    0.0000 C   0  0  1  0  0  0  0  0  0  0  0  0
   12.6449   -4.1747    0.0000 O   0  0  0  0  0  0  0  0  0  0  0  0
   12.6449   -5.8247    0.0000 C   0  0  2  0  0  0  0  0  0  0  0  0
   11.9305   -4.5872    0.0000 C   0  0  1  0  0  0  0  0  0  0  0  0
   11.9305   -5.4122    0.0000 C   0  0  2  0  0  0  0  0  0  0  0  0
   14.0739   -4.1747    0.0000 O   0  0  0  0  0  0  0  0  0  0  0  0
   14.0739   -5.8247    0.0000 N   0  0  0  0  0  0  0  0  0  0  0  0
   12.6449   -6.6497    0.0000 O   0  0  0  0  0  0  0  0  0  0  0  0
   11.2160   -4.1747    0.0000 C   0  0  0  0  0  0  0  0  0  0  0  0
   10.5015   -4.5872    0.0000 O   0  0  0  0  0  0  0  0  0  0  0  0
   14.0739   -6.6497    0.0000 C   0  0  0  0  0  0  0  0  0  0  0  0
   14.7884   -7.0623    0.0000 O   0  0  0  0  0  0  0  0  0  0  0  0
   13.3594   -7.0622    0.0000 C   0  0  0  0  0  0  0  0  0  0  0  0
  1  2  1  0  0  0  0
  1  3  1  0  0  0  0
  2  4  1  0  0  0  0
  3  5  1  0  0  0  0
  4  6  1  0  0  0  0
  5  6  1  0  0  0  0
  1  7  1  6  0  0  0
  2  8  1  6  0  0  0
  4  9  1  1  0  0  0
  6 10  1  1  0  0  0
  5 11  1  1  0  0  0
 12 11  1  0  0  0  0
 13 14  1  0  0  0  0
 13 15  1  0  0  0  0
 14 16  1  0  0  0  0
 15 17  1  0  0  0  0
 16 18  1  0  0  0  0
 17 18  1  0  0  0  0
 13 19  1  0  0  0  0
 14 20  1  6  0  0  0
 16 21  1  1  0  0  0
 18  7  1  1  0  0  0
 17 22  1  1  0  0  0
 23 22  1  0  0  0  0
 25 24  2  0  0  0  0
 26 24  1  0  0  0  0
 20 24  1  0  0  0  0
M  END
> <ID>
CHEBI:60930

> <NAME>
alpha-D-Galp-(1->4)-D-GalpNAc

> <DEFINITION>
An amino disaccharide consisting of N-acetylgalactosamine having an α-D-galactosyl residue at the 4-position

> <STAR>
3

> <SYNONYM>
NOR-di; Gal-alpha1-4-GalNAc; Gal-alpha-(1->4)-GalNAc; alpha-D-galactosyl-(1->4)-N-acetyl-D-galactose; alpha-D-Gal-(1->4)-D-GalNAc; 2-acetamido-2-deoxy-4-O-alpha-D-galactopyranosyl-D-galactopyranose

> <IUPAC_NAME>
alpha-D-galactopyranosyl-(1->4)-2-acetamido-2-deoxy-D-galactopyranose

> <FORMULA>
C14H25NO11

> <MASS>
383.34840

> <MONOISOTOPIC_MASS>
383.14276

> <CHARGE>
0

> <SMILES>
CC(=O)N[C@H]1C(O)O[C@H](CO)[C@H](O[C@H]2O[C@H](CO)[C@H](O)[C@H](O)[C@H]2O)[C@@H]1O

> <INCHI>
InChI=1S/C14H25NO11/c1-4(18)15-7-9(20)12(6(3-17)24-13(7)23)26-14-11(22)10(21)8(19)5(2-16)25-14/h5-14,16-17,19-23H,2-3H2,1H3,(H,15,18)/t5-,6-,7-,8+,9-,10+,11-,12+,13?,14-/m1/s1

> <INCHIKEY>
KFEUJDWYNGMDBV-BJDLXMOXSA-N

> <REAXYS_REGISTRY_NUMBER>
9298714

> <PUBMED_CITATION>
12350319; 12626386; 17006649; 17991151

$$$$

Marvin  01101116292D          

 26 27  0  0  1  0            999 V2000
    7.1120   -6.4162    0.0000 C   0  0  2  0  0  0  0  0  0  0  0  0
    7.1120   -7.2412    0.0000 C   0  0  1  0  0  0  0  0  0  0  0  0
    6.3975   -6.0037    0.0000 O   0  0  0  0  0  0  0  0  0  0  0  0
    6.3975   -7.6537    0.0000 C   0  0  2  0  0  0  0  0  0  0  0  0
    5.6831   -6.4162    0.0000 C   0  0  1  0  0  0  0  0  0  0  0  0
    5.6831   -7.2412    0.0000 C   0  0  2  0  0  0  0  0  0  0  0  0
    7.8265   -7.6537    0.0000 O   0  0  0  0  0  0  0  0  0  0  0  0
    6.3975   -8.4787    0.0000 O   0  0  0  0  0  0  0  0  0  0  0  0
    4.9686   -7.6536    0.0000 O   0  0  0  0  0  0  0  0  0  0  0  0
    4.9686   -6.0037    0.0000 C   0  0  0  0  0  0  0  0  0  0  0  0
    4.2541   -6.4162    0.0000 O   0  0  0  0  0  0  0  0  0  0  0  0
    7.8265   -6.0036    0.0000 O   0  0  0  0  0  0  0  0  0  0  0  0
    6.3976   -5.1786    0.0000 O   0  0  0  0  0  0  0  0  0  0  0  0
    8.5411   -3.9411    0.0000 C   0  0  0  0  0  0  0  0  0  0  0  0
    8.5411   -4.7661    0.0000 C   0  0  1  0  0  0  0  0  0  0  0  0
    7.8265   -3.5286    0.0000 O   0  0  0  0  0  0  0  0  0  0  0  0
    7.8265   -5.1786    0.0000 C   0  0  2  0  0  0  0  0  0  0  0  0
    7.1121   -3.9411    0.0000 C   0  0  1  0  0  0  0  0  0  0  0  0
    7.1121   -4.7661    0.0000 C   0  0  2  0  0  0  0  0  0  0  0  0
    9.2555   -3.5286    0.0000 O   0  0  0  0  0  0  0  0  0  0  0  0
    9.2555   -5.1787    0.0000 N   0  0  0  0  0  0  0  0  0  0  0  0
    6.3976   -3.5286    0.0000 C   0  0  0  0  0  0  0  0  0  0  0  0
    5.6831   -3.9412    0.0000 O   0  0  0  0  0  0  0  0  0  0  0  0
    9.2555   -6.0037    0.0000 C   0  0  0  0  0  0  0  0  0  0  0  0
    9.9699   -6.4162    0.0000 O   0  0  0  0  0  0  0  0  0  0  0  0
    8.5410   -6.4162    0.0000 C   0  0  0  0  0  0  0  0  0  0  0  0
  1  2  1  0  0  0  0
  1  3  1  0  0  0  0
  2  4  1  0  0  0  0
  3  5  1  0  0  0  0
  4  6  1  0  0  0  0
  5  6  1  0  0  0  0
  2  7  1  6  0  0  0
  4  8  1  1  0  0  0
  6  9  1  1  0  0  0
  5 10  1  1  0  0  0
 11 10  1  0  0  0  0
  1 12  1  6  0  0  0
 14 15  1  0  0  0  0
 14 16  1  0  0  0  0
 15 17  1  0  0  0  0
 16 18  1  0  0  0  0
 17 19  1  0  0  0  0
 18 19  1  0  0  0  0
 14 20  1  0  0  0  0
 15 21  1  6  0  0  0
 17 12  1  1  0  0  0
 19 13  1  1  0  0  0
 18 22  1  1  0  0  0
 23 22  1  0  0  0  0
 25 24  2  0  0  0  0
 26 24  1  0  0  0  0
 21 24  1  0  0  0  0
M  END
> <ID>
CHEBI:60931

> <NAME>
alpha-D-Galp-(1->3)-D-GalpNAc

> <DEFINITION>
An amino disaccharide consisting of N-acetylgalactosamine having an α-D-galactosyl residue at the 3-position

> <STAR>
3

> <SYNONYM>
Gal-alpha1,3-GalNAc; alpha-D-galactosyl-(1->3)-N-acetylglucosamine; alpha-D-Gal-(1->3)-D-GalNAc; 2-acetamido-2-deoxy-3-O-alpha-D-galactopyranosyl-D-galactopyranose; (Gal)1 (GalNAc)1

> <IUPAC_NAME>
alpha-D-galactopyranosyl-(1->3)-2-acetamido-2-deoxy-D-galactopyranose

> <FORMULA>
C14H25NO11

> <MASS>
383.34840

> <MONOISOTOPIC_MASS>
383.14276

> <CHARGE>
0

> <SMILES>
CC(=O)N[C@H]1C(O)O[C@H](CO)[C@H](O)[C@@H]1O[C@H]1O[C@H](CO)[C@H](O)[C@H](O)[C@H]1O

> <INCHI>
InChI=1S/C14H25NO11/c1-4(18)15-7-12(9(20)6(3-17)24-13(7)23)26-14-11(22)10(21)8(19)5(2-16)25-14/h5-14,16-17,19-23H,2-3H2,1H3,(H,15,18)/t5-,6-,7-,8+,9+,10+,11-,12-,13?,14-/m1/s1

> <INCHIKEY>
HMQPEDMEOBLSQB-HJZACBRZSA-N

> <KEGG_GLYCAN_ACCESSION>
G03578

> <PUBMED_CITATION>
17006649; 17991151; 19695255

$$$$

Marvin  01121109372D          

 26 27  0  0  1  0            999 V2000
   12.2470   -7.1121    0.0000 C   0  0  2  0  0  0  0  0  0  0  0  0
   12.2470   -7.9370    0.0000 C   0  0  1  0  0  0  0  0  0  0  0  0
   11.5325   -6.6996    0.0000 O   0  0  0  0  0  0  0  0  0  0  0  0
   11.5325   -8.3495    0.0000 C   0  0  2  0  0  0  0  0  0  0  0  0
   10.8181   -7.1121    0.0000 C   0  0  1  0  0  0  0  0  0  0  0  0
   10.8181   -7.9370    0.0000 C   0  0  2  0  0  0  0  0  0  0  0  0
   12.9615   -8.3495    0.0000 O   0  0  0  0  0  0  0  0  0  0  0  0
   11.5325   -9.1745    0.0000 O   0  0  0  0  0  0  0  0  0  0  0  0
   10.1037   -8.3494    0.0000 O   0  0  0  0  0  0  0  0  0  0  0  0
   10.1037   -6.6996    0.0000 C   0  0  0  0  0  0  0  0  0  0  0  0
    9.3891   -7.1121    0.0000 O   0  0  0  0  0  0  0  0  0  0  0  0
   12.9615   -6.6994    0.0000 O   0  0  0  0  0  0  0  0  0  0  0  0
   11.5326   -5.8745    0.0000 O   0  0  0  0  0  0  0  0  0  0  0  0
   13.6761   -4.6370    0.0000 C   0  0  2  0  0  0  0  0  0  0  0  0
   13.6761   -5.4620    0.0000 C   0  0  1  0  0  0  0  0  0  0  0  0
   12.9615   -4.2245    0.0000 O   0  0  0  0  0  0  0  0  0  0  0  0
   12.9615   -5.8745    0.0000 C   0  0  2  0  0  0  0  0  0  0  0  0
   12.2471   -4.6370    0.0000 C   0  0  1  0  0  0  0  0  0  0  0  0
   12.2471   -5.4620    0.0000 C   0  0  2  0  0  0  0  0  0  0  0  0
   14.3905   -4.2245    0.0000 O   0  0  0  0  0  0  0  0  0  0  0  0
   14.3905   -5.8745    0.0000 N   0  0  0  0  0  0  0  0  0  0  0  0
   11.5326   -4.2245    0.0000 C   0  0  0  0  0  0  0  0  0  0  0  0
   10.8181   -4.6371    0.0000 O   0  0  0  0  0  0  0  0  0  0  0  0
   14.3905   -6.6996    0.0000 C   0  0  0  0  0  0  0  0  0  0  0  0
   15.1048   -7.1121    0.0000 O   0  0  0  0  0  0  0  0  0  0  0  0
   13.6760   -7.1121    0.0000 C   0  0  0  0  0  0  0  0  0  0  0  0
  1  2  1  0  0  0  0
  1  3  1  0  0  0  0
  2  4  1  0  0  0  0
  3  5  1  0  0  0  0
  4  6  1  0  0  0  0
  5  6  1  0  0  0  0
  2  7  1  6  0  0  0
  4  8  1  1  0  0  0
  6  9  1  1  0  0  0
  5 10  1  1  0  0  0
 11 10  1  0  0  0  0
  1 12  1  6  0  0  0
 14 15  1  0  0  0  0
 14 16  1  0  0  0  0
 15 17  1  0  0  0  0
 16 18  1  0  0  0  0
 17 19  1  0  0  0  0
 18 19  1  0  0  0  0
 14 20  1  6  0  0  0
 15 21  1  6  0  0  0
 17 12  1  1  0  0  0
 19 13  1  1  0  0  0
 18 22  1  1  0  0  0
 23 22  1  0  0  0  0
 25 24  2  0  0  0  0
 26 24  1  0  0  0  0
 21 24  1  0  0  0  0
M  END
> <ID>
CHEBI:60944

> <NAME>
alpha-D-Galp-(1->3)-alpha-D-GalpNAc

> <DEFINITION>
An α-D-Galp-(1→3)-D-GalpNAc in which the anomeric centre at the reducing end has α-configuration.

> <STAR>
3

> <SYNONYM>
Galalpha1-3GalNAcalpha; Galalpha1-3-GalNAcalpha; Gala1-3GalNAca; Gal-alpha1,3-GalNAc-alpha; alpha-Gal-(1->3)-alpha-GalNAc; alpha-D-Gal-(1->3)-alpha-D-GalNAc; 2-acetamido-2-deoxy-3-O-alpha-D-galactopyranosyl-alpha-D-galactopyranose; 2-(acetylamino)-2-deoxy-3-O-alpha-D-galactopyranosyl-alpha-D-galactopyranose

> <IUPAC_NAME>
alpha-D-galactopyranosyl-(1->3)-2-acetamido-2-deoxy-alpha-D-galactopyranose

> <FORMULA>
C14H25NO11

> <MASS>
383.34840

> <MONOISOTOPIC_MASS>
383.14276

> <CHARGE>
0

> <SMILES>
CC(=O)N[C@H]1[C@@H](O)O[C@H](CO)[C@H](O)[C@@H]1O[C@H]1O[C@H](CO)[C@H](O)[C@H](O)[C@H]1O

> <INCHI>
InChI=1S/C14H25NO11/c1-4(18)15-7-12(9(20)6(3-17)24-13(7)23)26-14-11(22)10(21)8(19)5(2-16)25-14/h5-14,16-17,19-23H,2-3H2,1H3,(H,15,18)/t5-,6-,7-,8+,9+,10+,11-,12-,13+,14-/m1/s1

> <INCHIKEY>
HMQPEDMEOBLSQB-ZUQMCDMZSA-N

> <REAXYS_REGISTRY_NUMBER>
7799001

> <PUBMED_CITATION>
17006649; 17991151; 19443021; 25568069; 31537530

$$$$

Marvin  01121110342D          

 29 30  0  0  1  0            999 V2000
   19.0380   -4.7833    0.0000 C   0  0  2  0  0  0  0  0  0  0  0  0
   19.0380   -5.6083    0.0000 C   0  0  1  0  0  0  0  0  0  0  0  0
   18.3235   -4.3708    0.0000 O   0  0  0  0  0  0  0  0  0  0  0  0
   18.3235   -6.0209    0.0000 C   0  0  2  0  0  0  0  0  0  0  0  0
   17.6090   -4.7833    0.0000 C   0  0  1  0  0  0  0  0  0  0  0  0
   17.6090   -5.6083    0.0000 C   0  0  2  0  0  0  0  0  0  0  0  0
   19.7524   -4.3708    0.0000 O   0  0  0  0  0  0  0  0  0  0  0  0
   19.7524   -6.0209    0.0000 N   0  0  0  0  0  0  0  0  0  0  0  0
   18.3234   -6.8459    0.0000 O   0  0  0  0  0  0  0  0  0  0  0  0
   16.8946   -6.0209    0.0000 O   0  0  0  0  0  0  0  0  0  0  0  0
   16.8946   -4.3708    0.0000 C   0  0  0  0  0  0  0  0  0  0  0  0
   16.1802   -4.7833    0.0000 O   0  0  0  0  0  0  0  0  0  0  0  0
   21.8958   -3.1334    0.0000 C   0  0  0  0  0  0  0  0  0  0  0  0
   21.8958   -3.9584    0.0000 C   0  0  1  0  0  0  0  0  0  0  0  0
   21.1813   -2.7209    0.0000 O   0  0  0  0  0  0  0  0  0  0  0  0
   21.1813   -4.3708    0.0000 C   0  0  2  0  0  0  0  0  0  0  0  0
   20.4669   -3.1334    0.0000 C   0  0  1  0  0  0  0  0  0  0  0  0
   20.4669   -3.9584    0.0000 C   0  0  1  0  0  0  0  0  0  0  0  0
   22.6103   -2.7209    0.0000 O   0  0  0  0  0  0  0  0  0  0  0  0
   22.6103   -4.3708    0.0000 N   0  0  0  0  0  0  0  0  0  0  0  0
   21.1813   -5.1958    0.0000 O   0  0  0  0  0  0  0  0  0  0  0  0
   19.7524   -2.7209    0.0000 C   0  0  0  0  0  0  0  0  0  0  0  0
   19.0380   -3.1334    0.0000 O   0  0  0  0  0  0  0  0  0  0  0  0
   22.6103   -5.1958    0.0000 C   0  0  0  0  0  0  0  0  0  0  0  0
   23.3247   -5.6084    0.0000 O   0  0  0  0  0  0  0  0  0  0  0  0
   21.8958   -5.6083    0.0000 C   0  0  0  0  0  0  0  0  0  0  0  0
   19.7524   -6.8459    0.0000 C   0  0  0  0  0  0  0  0  0  0  0  0
   20.4668   -7.2584    0.0000 O   0  0  0  0  0  0  0  0  0  0  0  0
   19.0379   -7.2583    0.0000 C   0  0  0  0  0  0  0  0  0  0  0  0
  1  2  1  0  0  0  0
  1  3  1  0  0  0  0
  2  4  1  0  0  0  0
  3  5  1  0  0  0  0
  4  6  1  0  0  0  0
  5  6  1  0  0  0  0
  1  7  1  6  0  0  0
  2  8  1  6  0  0  0
  4  9  1  1  0  0  0
  6 10  1  1  0  0  0
  5 11  1  1  0  0  0
 12 11  1  0  0  0  0
 13 14  1  0  0  0  0
 13 15  1  0  0  0  0
 14 16  1  0  0  0  0
 15 17  1  0  0  0  0
 16 18  1  0  0  0  0
 17 18  1  0  0  0  0
 13 19  1  0  0  0  0
 14 20  1  6  0  0  0
 16 21  1  1  0  0  0
 18  7  1  6  0  0  0
 17 22  1  1  0  0  0
 23 22  1  0  0  0  0
 25 24  2  0  0  0  0
 26 24  1  0  0  0  0
 20 24  1  0  0  0  0
 28 27  2  0  0  0  0
 29 27  1  0  0  0  0
  8 27  1  0  0  0  0
M  END
> <ID>
CHEBI:60945

> <NAME>
alpha-D-GalpNAc-(1->4)-D-GlcpNAc

> <DEFINITION>
An amino disaccharide consisting of N-acetyl-D-glucosamine having an N-acetyl-α-D-galactosminyl resiude attached at the 4-position.

> <STAR>
3

> <SYNONYM>
GalNAc-alpha1,4GlcNAc; alpha-D-N-acetylgalactosaminyl-(1->4)-D-N-acetylglucosamine; alpha-D-GalNAc-(1->4)-D-GlcNAc; 2-acetamido-4-O-(2-acetamido-2-deoxy-alpha-D-galactopyranosyl)-2-deoxy-D-glucopyranose; (GalNAc)1 (GlcNAc)1

> <IUPAC_NAME>
2-acetamido-2-deoxy-alpha-D-galactopyranosyl-(1->4)-2-acetamido-2-deoxy-D-glucopyranose

> <FORMULA>
C16H28N2O11

> <MASS>
424.40030

> <MONOISOTOPIC_MASS>
424.16931

> <CHARGE>
0

> <SMILES>
CC(=O)N[C@H]1C(O)O[C@H](CO)[C@@H](O[C@H]2O[C@H](CO)[C@H](O)[C@H](O)[C@H]2NC(C)=O)[C@@H]1O

> <INCHI>
InChI=1S/C16H28N2O11/c1-5(21)17-9-13(25)14(8(4-20)27-15(9)26)29-16-10(18-6(2)22)12(24)11(23)7(3-19)28-16/h7-16,19-20,23-26H,3-4H2,1-2H3,(H,17,21)(H,18,22)/t7-,8-,9-,10-,11+,12-,13-,14-,15?,16-/m1/s1

> <INCHIKEY>
CDOJPCSDOXYJJF-BHKGJTDZSA-N

> <PUBMED_CITATION>
17991151

$$$$

Marvin  01121113262D          

 34 36  0  0  1  0            999 V2000
    7.3576   -5.7601    0.0000 C   0  0  2  0  0  0  0  0  0  0  0  0
    7.3576   -6.5851    0.0000 C   0  0  1  0  0  0  0  0  0  0  0  0
    6.6430   -5.3476    0.0000 O   0  0  0  0  0  0  0  0  0  0  0  0
    6.6430   -6.9976    0.0000 C   0  0  2  0  0  0  0  0  0  0  0  0
    5.9286   -5.7601    0.0000 C   0  0  1  0  0  0  0  0  0  0  0  0
    5.9286   -6.5851    0.0000 C   0  0  2  0  0  0  0  0  0  0  0  0
    8.0720   -6.9976    0.0000 O   0  0  0  0  0  0  0  0  0  0  0  0
    6.6430   -7.8226    0.0000 O   0  0  0  0  0  0  0  0  0  0  0  0
    5.2141   -6.9976    0.0000 O   0  0  0  0  0  0  0  0  0  0  0  0
    5.2141   -5.3476    0.0000 C   0  0  0  0  0  0  0  0  0  0  0  0
    4.4997   -5.7601    0.0000 O   0  0  0  0  0  0  0  0  0  0  0  0
    8.0720   -5.3476    0.0000 O   0  0  0  0  0  0  0  0  0  0  0  0
   13.0734   -2.4601    0.0000 C   0  0  0  0  0  0  0  0  0  0  0  0
   13.0734   -3.2851    0.0000 C   0  0  1  0  0  0  0  0  0  0  0  0
   12.3589   -2.0476    0.0000 O   0  0  0  0  0  0  0  0  0  0  0  0
   12.3589   -3.6976    0.0000 C   0  0  2  0  0  0  0  0  0  0  0  0
   11.6444   -2.4601    0.0000 C   0  0  1  0  0  0  0  0  0  0  0  0
   11.6444   -3.2851    0.0000 C   0  0  1  0  0  0  0  0  0  0  0  0
   13.7879   -2.0476    0.0000 O   0  0  0  0  0  0  0  0  0  0  0  0
   13.7879   -3.6976    0.0000 O   0  0  0  0  0  0  0  0  0  0  0  0
   12.3589   -4.5226    0.0000 O   0  0  0  0  0  0  0  0  0  0  0  0
   10.9299   -3.6976    0.0000 O   0  0  0  0  0  0  0  0  0  0  0  0
   10.9299   -2.0476    0.0000 C   0  0  0  0  0  0  0  0  0  0  0  0
   10.2155   -2.4601    0.0000 O   0  0  0  0  0  0  0  0  0  0  0  0
   10.2155   -4.1101    0.0000 C   0  0  1  0  0  0  0  0  0  0  0  0
   10.2155   -4.9351    0.0000 C   0  0  1  0  0  0  0  0  0  0  0  0
    9.5010   -3.6976    0.0000 O   0  0  0  0  0  0  0  0  0  0  0  0
    9.5010   -5.3476    0.0000 C   0  0  2  0  0  0  0  0  0  0  0  0
    8.7866   -4.1101    0.0000 C   0  0  1  0  0  0  0  0  0  0  0  0
    8.7866   -4.9351    0.0000 C   0  0  2  0  0  0  0  0  0  0  0  0
   10.9299   -5.3476    0.0000 O   0  0  0  0  0  0  0  0  0  0  0  0
    9.5010   -6.1726    0.0000 O   0  0  0  0  0  0  0  0  0  0  0  0
    8.0720   -3.6976    0.0000 C   0  0  0  0  0  0  0  0  0  0  0  0
    7.3576   -4.1101    0.0000 O   0  0  0  0  0  0  0  0  0  0  0  0
  1  2  1  0  0  0  0
  1  3  1  0  0  0  0
  2  4  1  0  0  0  0
  3  5  1  0  0  0  0
  4  6  1  0  0  0  0
  5  6  1  0  0  0  0
  2  7  1  6  0  0  0
  4  8  1  1  0  0  0
  6  9  1  1  0  0  0
  5 10  1  1  0  0  0
 11 10  1  0  0  0  0
  1 12  1  6  0  0  0
 13 14  1  0  0  0  0
 13 15  1  0  0  0  0
 14 16  1  0  0  0  0
 15 17  1  0  0  0  0
 16 18  1  0  0  0  0
 17 18  1  0  0  0  0
 13 19  1  0  0  0  0
 14 20  1  6  0  0  0
 16 21  1  1  0  0  0
 18 22  1  6  0  0  0
 17 23  1  1  0  0  0
 24 23  1  0  0  0  0
 25 26  1  0  0  0  0
 25 27  1  0  0  0  0
 26 28  1  0  0  0  0
 27 29  1  0  0  0  0
 28 30  1  0  0  0  0
 29 30  1  0  0  0  0
 25 22  1  1  0  0  0
 26 31  1  6  0  0  0
 28 32  1  1  0  0  0
 30 12  1  1  0  0  0
 29 33  1  1  0  0  0
 34 33  1  0  0  0  0
M  END
> <ID>
CHEBI:60948

> <NAME>
alpha-D-Gal-(1->4)-beta-D-Gal-(1->4)-D-Glc

> <DEFINITION>
A linear trisaccharide comprising D-glucose (at the reducing end) having an α-D-galactosyl-(1→4)-β-D-galactosyl moiety at the 4-position.

> <STAR>
3

> <SYNONYM>
Pk; Galalpha1-4Gal-beta1-4Glc~OH; Galalpha1-4Gal-beta1-4Glc; Galalpha1,4Gal-beta1,4Glc; Gal-alpha1,4Gal-beta1,4-Glc; Gal-alpha-1,4-Gal-beta-1,4-Glc; alpha-D-Galp-(1->4)-beta-D-Galp-(1->4)-D-Glcp; alpha-D-galactosyl-(1->4)-beta-D-galactosyl-(1->4)-D-glucose; 4-O-(4-O-alpha-D-galactopyranosyl-beta-D-galactopyranosyl)-D-glucopyranose; 4'-galactosyllactose; (Gal)2 (Glc)1

> <IUPAC_NAME>
alpha-D-galactopyranosyl-(1->4)-beta-D-galactopyranosyl-(1->4)-D-glucopyranose

> <FORMULA>
C18H32O16

> <MASS>
504.43710

> <MONOISOTOPIC_MASS>
504.16903

> <CHARGE>
0

> <SMILES>
OC[C@H]1O[C@H](O[C@H]2[C@@H](CO)O[C@@H](O[C@@H]3[C@@H](CO)OC(O)[C@H](O)[C@H]3O)[C@H](O)[C@H]2O)[C@H](O)[C@@H](O)[C@H]1O

> <INCHI>
InChI=1S/C18H32O16/c19-1-4-7(22)8(23)12(27)17(31-4)34-15-6(3-21)32-18(13(28)10(15)25)33-14-5(2-20)30-16(29)11(26)9(14)24/h4-29H,1-3H2/t4-,5-,6-,7+,8+,9-,10-,11-,12-,13-,14-,15+,16?,17-,18+/m1/s1

> <INCHIKEY>
FYGDTMLNYKFZSV-ANKSBSNASA-N

> <CAS_REGISTRY_NUMBER>
80446-87-3

> <REAXYS_REGISTRY_NUMBER>
5386141

> <CHEMIDPLUS>
80446-87-3

> <KEGG_GLYCAN_ACCESSION>
G03416

> <PUBMED_CITATION>
12020649; 16133831; 17991151; 2292729; 2456994; 9538266

$$$$

Marvin  01121117112D          

 37 39  0  0  1  0            999 V2000
    7.3576   -5.7601    0.0000 C   0  0  2  0  0  0  0  0  0  0  0  0
    7.3576   -6.5851    0.0000 C   0  0  1  0  0  0  0  0  0  0  0  0
    6.6430   -5.3476    0.0000 O   0  0  0  0  0  0  0  0  0  0  0  0
    6.6430   -6.9976    0.0000 C   0  0  2  0  0  0  0  0  0  0  0  0
    5.9286   -5.7601    0.0000 C   0  0  1  0  0  0  0  0  0  0  0  0
    5.9286   -6.5851    0.0000 C   0  0  2  0  0  0  0  0  0  0  0  0
    8.0720   -6.9976    0.0000 O   0  0  0  0  0  0  0  0  0  0  0  0
    6.6430   -7.8226    0.0000 O   0  0  0  0  0  0  0  0  0  0  0  0
    5.2141   -6.9976    0.0000 O   0  0  0  0  0  0  0  0  0  0  0  0
    5.2141   -5.3476    0.0000 C   0  0  0  0  0  0  0  0  0  0  0  0
    4.4997   -5.7601    0.0000 O   0  0  0  0  0  0  0  0  0  0  0  0
    8.0720   -5.3476    0.0000 O   0  0  0  0  0  0  0  0  0  0  0  0
   13.0734   -2.4601    0.0000 C   0  0  0  0  0  0  0  0  0  0  0  0
   13.0734   -3.2851    0.0000 C   0  0  1  0  0  0  0  0  0  0  0  0
   12.3589   -2.0476    0.0000 O   0  0  0  0  0  0  0  0  0  0  0  0
   12.3589   -3.6976    0.0000 C   0  0  2  0  0  0  0  0  0  0  0  0
   11.6444   -2.4601    0.0000 C   0  0  1  0  0  0  0  0  0  0  0  0
   11.6444   -3.2851    0.0000 C   0  0  1  0  0  0  0  0  0  0  0  0
   13.7879   -2.0476    0.0000 O   0  0  0  0  0  0  0  0  0  0  0  0
   13.7879   -3.6976    0.0000 N   0  0  0  0  0  0  0  0  0  0  0  0
   12.3589   -4.5226    0.0000 O   0  0  0  0  0  0  0  0  0  0  0  0
   10.9299   -3.6976    0.0000 O   0  0  0  0  0  0  0  0  0  0  0  0
   10.9299   -2.0476    0.0000 C   0  0  0  0  0  0  0  0  0  0  0  0
   10.2155   -2.4601    0.0000 O   0  0  0  0  0  0  0  0  0  0  0  0
   10.2155   -4.1101    0.0000 C   0  0  1  0  0  0  0  0  0  0  0  0
   10.2155   -4.9351    0.0000 C   0  0  1  0  0  0  0  0  0  0  0  0
    9.5010   -3.6976    0.0000 O   0  0  0  0  0  0  0  0  0  0  0  0
    9.5010   -5.3476    0.0000 C   0  0  2  0  0  0  0  0  0  0  0  0
    8.7866   -4.1101    0.0000 C   0  0  1  0  0  0  0  0  0  0  0  0
    8.7866   -4.9351    0.0000 C   0  0  2  0  0  0  0  0  0  0  0  0
   10.9299   -5.3476    0.0000 O   0  0  0  0  0  0  0  0  0  0  0  0
    9.5010   -6.1726    0.0000 O   0  0  0  0  0  0  0  0  0  0  0  0
    8.0720   -3.6976    0.0000 C   0  0  0  0  0  0  0  0  0  0  0  0
    7.3576   -4.1101    0.0000 O   0  0  0  0  0  0  0  0  0  0  0  0
   13.7879   -4.5226    0.0000 C   0  0  0  0  0  0  0  0  0  0  0  0
   14.5023   -4.9351    0.0000 O   0  0  0  0  0  0  0  0  0  0  0  0
   13.0734   -4.9351    0.0000 C   0  0  0  0  0  0  0  0  0  0  0  0
  1  2  1  0  0  0  0
  1  3  1  0  0  0  0
  2  4  1  0  0  0  0
  3  5  1  0  0  0  0
  4  6  1  0  0  0  0
  5  6  1  0  0  0  0
  2  7  1  6  0  0  0
  4  8  1  1  0  0  0
  6  9  1  1  0  0  0
  5 10  1  1  0  0  0
 11 10  1  0  0  0  0
  1 12  1  6  0  0  0
 13 14  1  0  0  0  0
 13 15  1  0  0  0  0
 14 16  1  0  0  0  0
 15 17  1  0  0  0  0
 16 18  1  0  0  0  0
 17 18  1  0  0  0  0
 13 19  1  0  0  0  0
 14 20  1  6  0  0  0
 16 21  1  1  0  0  0
 18 22  1  6  0  0  0
 17 23  1  1  0  0  0
 24 23  1  0  0  0  0
 25 26  1  0  0  0  0
 25 27  1  0  0  0  0
 26 28  1  0  0  0  0
 27 29  1  0  0  0  0
 28 30  1  0  0  0  0
 29 30  1  0  0  0  0
 25 22  1  1  0  0  0
 26 31  1  6  0  0  0
 28 32  1  1  0  0  0
 30 12  1  1  0  0  0
 29 33  1  1  0  0  0
 34 33  1  0  0  0  0
 36 35  2  0  0  0  0
 37 35  1  0  0  0  0
 20 35  1  0  0  0  0
M  END
> <ID>
CHEBI:60949

> <NAME>
alpha-D-Gal-(1->4)-beta-D-Gal-(1->4)-D-GlcNAc

> <DEFINITION>
An amino trisaccharide consisting of two D-galactose residues and an N-acetyl-D-glucosamine residue (at the reducing end) in a linear sequence.

> <STAR>
3

> <SYNONYM>
P1; Gal-alpha1,4Gal-beta1,4-GlcNAc; alpha-D-Galp-(1->4)-beta-D-Galp-(1->4)-D-GlcpNAc; alpha-D-galactosyl-(1->4)-beta-D-galactosyl-(1->4)-N-acetyl-D-glucosamine; (Gal)2 (GlcNAc)1

> <IUPAC_NAME>
alpha-D-galactopyranosyl-(1->4)-beta-D-galactopyranosyl-(1->4)-2-acetamido-2-deoxy-D-glucopyranose

> <FORMULA>
C20H35NO16

> <MASS>
545.48900

> <MONOISOTOPIC_MASS>
545.19558

> <CHARGE>
0

> <SMILES>
CC(=O)N[C@H]1C(O)O[C@H](CO)[C@@H](O[C@@H]2O[C@H](CO)[C@H](O[C@H]3O[C@H](CO)[C@H](O)[C@H](O)[C@H]3O)[C@H](O)[C@H]2O)[C@@H]1O

> <INCHI>
InChI=1S/C20H35NO16/c1-5(25)21-9-11(27)16(7(3-23)33-18(9)32)36-20-15(31)13(29)17(8(4-24)35-20)37-19-14(30)12(28)10(26)6(2-22)34-19/h6-20,22-24,26-32H,2-4H2,1H3,(H,21,25)/t6-,7-,8-,9-,10+,11-,12+,13-,14-,15-,16-,17+,18?,19-,20+/m1/s1

> <INCHIKEY>
QOITYCLKNIWNMP-ZLPWQWAFSA-N

> <KEGG_GLYCAN_ACCESSION>
G00439

> <PUBMED_CITATION>
12626386; 17006649; 17991151

$$$$

Ketcher 02112011462D 1   1.00000     0.00000     0

 33 35  0     1  0            999 V2000
    8.4618  -62.4609    0.0000 C   0  0  0  0  0  0  0  0  0  0  0  0
    8.4618  -63.4609    0.0000 C   0  0  0  0  0  0  0  0  0  0  0  0
    7.5957  -61.9609    0.0000 O   0  0  0  0  0  0  0  0  0  0  0  0
    7.5957  -63.9610    0.0000 C   0  0  0  0  0  0  0  0  0  0  0  0
    6.7298  -62.4609    0.0000 C   0  0  0  0  0  0  0  0  0  0  0  0
    6.7298  -63.4609    0.0000 C   0  0  0  0  0  0  0  0  0  0  0  0
    9.3279  -61.9609    0.0000 O   0  0  0  0  0  0  0  0  0  0  0  0
    9.3279  -63.9610    0.0000 O   0  0  0  0  0  0  0  0  0  0  0  0
    7.5957  -64.9609    0.0000 O   0  0  0  0  0  0  0  0  0  0  0  0
    5.8637  -63.9610    0.0000 O   0  0  0  0  0  0  0  0  0  0  0  0
    5.8637  -61.9609    0.0000 C   0  0  0  0  0  0  0  0  0  0  0  0
    6.7298  -65.4609    0.0000 C   0  0  0  0  0  0  0  0  0  0  0  0
    6.7298  -66.4609    0.0000 C   0  0  0  0  0  0  0  0  0  0  0  0
    5.8637  -64.9609    0.0000 O   0  0  0  0  0  0  0  0  0  0  0  0
    5.8637  -66.9609    0.0000 C   0  0  0  0  0  0  0  0  0  0  0  0
    4.9977  -65.4609    0.0000 C   0  0  0  0  0  0  0  0  0  0  0  0
    4.9977  -66.4609    0.0000 C   0  0  0  0  0  0  0  0  0  0  0  0
    7.5957  -66.9609    0.0000 O   0  0  0  0  0  0  0  0  0  0  0  0
    5.8637  -67.9610    0.0000 O   0  0  0  0  0  0  0  0  0  0  0  0
    4.1317  -66.9609    0.0000 O   0  0  0  0  0  0  0  0  0  0  0  0
    4.1317  -64.9609    0.0000 C   0  0  0  0  0  0  0  0  0  0  0  0
   11.0598  -63.9609    0.0000 O   0  0  0  0  0  0  0  0  0  0  0  0
   11.9259  -64.4607    0.0000 C   0  0  0  0  0  0  0  0  0  0  0  0
   10.1939  -64.4610    0.0000 C   0  0  0  0  0  0  0  0  0  0  0  0
   10.1939  -65.4608    0.0000 C   0  0  0  0  0  0  0  0  0  0  0  0
   11.0601  -65.9609    0.0000 C   0  0  0  0  0  0  0  0  0  0  0  0
   11.9262  -65.4608    0.0000 C   0  0  0  0  0  0  0  0  0  0  0  0
    9.3281  -65.9611    0.0000 O   0  0  0  0  0  0  0  0  0  0  0  0
   11.0602  -66.9608    0.0000 O   0  0  0  0  0  0  0  0  0  0  0  0
   12.7921  -65.9608    0.0000 O   0  0  0  0  0  0  0  0  0  0  0  0
   12.7919  -63.9607    0.0000 C   0  0  0  0  0  0  0  0  0  0  0  0
    5.8637  -60.9609    0.0000 O   0  0  0  0  0  0  0  0  0  0  0  0
    4.1317  -63.9609    0.0000 O   0  0  0  0  0  0  0  0  0  0  0  0
  1  2  1  0     0  0
  1  3  1  0     0  0
  2  4  1  0     0  0
  3  5  1  0     0  0
  4  6  1  0     0  0
  5  6  1  0     0  0
  1  7  1  1     0  0
  2  8  1  6     0  0
  4  9  1  1     0  0
  6 10  1  1     0  0
  5 11  1  1     0  0
 12 13  1  0     0  0
 12 14  1  0     0  0
 13 15  1  0     0  0
 14 16  1  0     0  0
 15 17  1  0     0  0
 16 17  1  0     0  0
 12  9  1  6     0  0
 13 18  1  6     0  0
 15 19  1  1     0  0
 17 20  1  1     0  0
 16 21  1  1     0  0
 23 22  1  0     0  0
 24 22  1  0     0  0
 24  8  1  6     0  0
 24 25  1  0     0  0
 25 28  1  6     0  0
 25 26  1  0     0  0
 26 29  1  1     0  0
 26 27  1  0     0  0
 27 23  1  0     0  0
 27 30  1  1     0  0
 23 31  1  1     0  0
 11 32  1  0     0  0
 21 33  1  0     0  0
M  END
> <ID>
CHEBI:61010

> <NAME>
alpha-L-Fuc-(1->2)-[alpha-D-Gal-(1->3)]-beta-D-Gal

> <DEFINITION>
A branched trisaccharide consisting of β-D-galactose having an α-L-fucosyl residue at the 2-position and an α-D-galactosyl residue at the 3-position.

> <STAR>
3

> <SYNONYM>
Galalpha1-3(Fucalpha1-2)Galbeta; Galalpha1,3(Fucalpha1,2)Galbeta; Gala1-3(Fuca1-2)Galb; blood group B trisaccharide; blood group B epitope; blood group B antigen epitope; B antigen trisaccharide; alphaGal1->3(alphaFuc1->2)betaGal; alpha-L-Fucp-(1->2)-[alpha-D-Galp-(1->3)]-beta-D-Galp; alpha-L-fucosyl-(1->2)-[alpha-D-galactosyl-(1->3)]-beta-D-galactose; alpha-D-Galp-(1->3)-[alpha-L-Fucp-(1->2)]-beta-D-Galp; alpha-D-galactosyl-(1->3)-[alpha-L-fucosyl-(1->2)]-beta-D-galactose; alpha-D-Gal-(1->3)-[alpha-L-Fuc-(1->2)]-beta-D-Gal; 6-deoxy-alpha-L-galactopyranosyl-(1->2)-[alpha-D-galactopyranosyl-(1->3)]-beta-D-galactopyranose

> <IUPAC_NAME>
alpha-L-fucopyranosyl-(1->2)-[alpha-D-galactopyranosyl-(1->3)]-beta-D-galactopyranose

> <FORMULA>
C18H32O15

> <MASS>
488.439

> <MONOISOTOPIC_MASS>
488.17412

> <CHARGE>
0

> <SMILES>
[C@@H]1([C@@H]([C@H]([C@H]([C@H](O1)CO)O)O[C@@H]2[C@@H]([C@H]([C@H]([C@H](O2)CO)O)O)O)O[C@@H]3O[C@H]([C@H]([C@H]([C@@H]3O)O)O)C)O

> <INCHI>
InChI=1S/C18H32O15/c1-4-7(21)10(24)12(26)17(29-4)33-15-14(9(23)6(3-20)30-16(15)28)32-18-13(27)11(25)8(22)5(2-19)31-18/h4-28H,2-3H2,1H3/t4-,5+,6+,7+,8-,9-,10+,11-,12-,13+,14-,15+,16+,17-,18+/m0/s1

> <INCHIKEY>
XNBZPOHDTUWNMW-VAVSLJLZSA-N

> <REAXYS_REGISTRY_NUMBER>
5858016

> <PUBMED_CITATION>
10442639; 10724530; 12815228; 1429589; 1473113; 16133831; 16442559; 19443021; 19582848; 24749871; 25568069; 27514820; 31537530; 7510273; 8529660

$$$$

Marvin  01171113312D          

 21 23  0  0  1  0            999 V2000
   11.2592   -6.0294    0.0000 N   0  0  0  0  0  0  0  0  0  0  0  0
   11.2592   -6.8568    0.0000 C   0  0  0  0  0  0  0  0  0  0  0  0
   11.9639   -7.2858    0.0000 N   0  0  0  0  0  0  0  0  0  0  0  0
   12.6381   -6.8568    0.0000 C   0  0  0  0  0  0  0  0  0  0  0  0
   12.6381   -6.0294    0.0000 C   0  0  0  0  0  0  0  0  0  0  0  0
   11.9639   -5.6004    0.0000 C   0  0  0  0  0  0  0  0  0  0  0  0
   13.4041   -5.7537    0.0000 N   0  0  0  0  0  0  0  0  0  0  0  0
   13.8637   -6.4584    0.0000 C   0  0  0  0  0  0  0  0  0  0  0  0
   13.4041   -7.1325    0.0000 N   0  0  0  0  0  0  0  0  0  0  0  0
   11.9761   -9.3547    0.0000 C   0  0  1  0  0  0  0  0  0  0  0  0
   12.8095   -9.3397    0.0000 C   0  0  0  0  0  0  0  0  0  0  0  0
   13.0751   -8.5755    0.0000 C   0  0  1  0  0  0  0  0  0  0  0  0
   12.4088   -8.1167    0.0000 O   0  0  0  0  0  0  0  0  0  0  0  0
   11.7281   -8.5976    0.0000 C   0  0  2  0  0  0  0  0  0  0  0  0
   11.0226   -8.2160    0.0000 C   0  0  0  0  0  0  0  0  0  0  0  0
   10.2641   -8.7547    0.0000 O   0  0  0  0  0  0  0  0  0  0  0  0
   11.4495  -10.0108    0.0000 O   0  0  0  0  0  0  0  0  0  0  0  0
   11.9639   -4.7426    0.0000 O   0  0  0  0  0  0  0  0  0  0  0  0
   10.5545   -7.2858    0.0000 N   0  0  0  0  0  0  0  0  0  0  0  0
   12.6784   -4.3301    0.0000 C   0  0  0  0  0  0  0  0  0  0  0  0
   13.3928   -4.7426    0.0000 C   0  0  0  0  0  0  0  0  0  0  0  0
  2  1  1  0  0  0  0
  6  1  2  0  0  0  0
  3  2  2  0  0  0  0
 19  2  1  0  0  0  0
  4  3  1  0  0  0  0
  5  6  1  0  0  0  0
 18  6  1  0  0  0  0
  4  5  2  0  0  0  0
  7  5  1  0  0  0  0
  9  4  1  0  0  0  0
 12  9  1  1  0  0  0
  8  9  1  0  0  0  0
  7  8  2  0  0  0  0
 11 10  1  0  0  0  0
 14 10  1  0  0  0  0
 10 17  1  6  0  0  0
 12 11  1  0  0  0  0
 13 12  1  0  0  0  0
 14 13  1  0  0  0  0
 14 15  1  1  0  0  0
 16 15  1  0  0  0  0
 18 20  1  0  0  0  0
 20 21  1  0  0  0  0
M  END
> <ID>
CHEBI:61013

> <NAME>
O(6)-ethyl-2'-deoxyguanosine

> <DEFINITION>
A purine 2'-deoxyribonucleoside having O6-ethylguanine as the nucleobase.

> <STAR>
3

> <SYNONYM>
O(6)-Ethyldeoxyguanosine; O(6)-Ethyl-2'-deoxyguanosine; 2'-Deoxy-O(6)-ethylguanosine

> <IUPAC_NAME>
9-(2-deoxy-beta-D-erythro-pentofuranosyl)-6-ethoxy-9H-purin-2-amine

> <FORMULA>
C12H17N5O4

> <MASS>
295.29450

> <MONOISOTOPIC_MASS>
295.12805

> <CHARGE>
0

> <SMILES>
CCOc1nc(N)nc2n(cnc12)[C@H]1C[C@H](O)[C@@H](CO)O1

> <INCHI>
InChI=1S/C12H17N5O4/c1-2-20-11-9-10(15-12(13)16-11)17(5-14-9)8-3-6(19)7(4-18)21-8/h5-8,18-19H,2-4H2,1H3,(H2,13,15,16)/t6-,7+,8+/m0/s1

> <INCHIKEY>
AQRYUWBBKDNOHV-XLPZGREQSA-N

> <CAS_REGISTRY_NUMBER>
50704-46-6

> <REAXYS_REGISTRY_NUMBER>
1158082

> <CHEMIDPLUS>
50704-46-6

> <PUBMED_CITATION>
2441745; 4776868

$$$$

Marvin  01171114402D          

 38 42  0  0  0  0            999 V2000
   -0.6373    0.6834    0.0000 C   0  0  0  0  0  0  0  0  0  0  0  0
   -1.3518    0.2709    0.0000 C   0  0  0  0  0  0  0  0  0  0  0  0
   -1.3518   -0.5541    0.0000 C   0  0  0  0  0  0  0  0  0  0  0  0
   -0.6373   -0.9666    0.0000 C   0  0  0  0  0  0  0  0  0  0  0  0
    0.0771   -0.5541    0.0000 N   0  0  0  0  0  0  0  0  0  0  0  0
    0.0771    0.2709    0.0000 C   0  0  2  0  0  0  0  0  0  0  0  0
   -2.1364    0.5258    0.0000 N   0  0  0  0  0  0  0  0  0  0  0  0
   -2.6213   -0.1417    0.0000 C   0  0  0  0  0  0  0  0  0  0  0  0
   -2.1364   -0.8091    0.0000 N   0  0  0  0  0  0  0  0  0  0  0  0
   -2.3914    1.3104    0.0000 C   0  0  0  0  0  0  0  0  0  0  0  0
   -3.1883    1.5239    0.0000 C   0  0  0  0  0  0  0  0  0  0  0  0
    0.7916    0.6834    0.0000 C   0  0  0  0  0  0  0  0  0  0  0  0
    0.7916    1.5084    0.0000 O   0  0  0  0  0  0  0  0  0  0  0  0
    1.5061    0.2709    0.0000 O   0  0  0  0  0  0  0  0  0  0  0  0
    0.7916   -0.9666    0.0000 C   0  0  0  0  0  0  0  0  0  0  0  0
    0.7916   -1.7916    0.0000 C   0  0  0  0  0  0  0  0  0  0  0  0
    1.5061   -0.5541    0.0000 O   0  0  0  0  0  0  0  0  0  0  0  0
    1.5061   -2.2041    0.0000 C   0  0  0  0  0  0  0  0  0  0  0  0
    0.0771   -2.2041    0.0000 C   0  0  0  0  0  0  0  0  0  0  0  0
   -0.6373   -1.7916    0.0000 C   0  0  0  0  0  0  0  0  0  0  0  0
   -1.3518   -2.2041    0.0000 C   0  0  0  0  0  0  0  0  0  0  0  0
   -1.3518   -3.0291    0.0000 C   0  0  0  0  0  0  0  0  0  0  0  0
   -0.6373   -3.4417    0.0000 C   0  0  0  0  0  0  0  0  0  0  0  0
    0.0771   -3.0291    0.0000 C   0  0  0  0  0  0  0  0  0  0  0  0
    2.2205   -1.7916    0.0000 C   0  0  0  0  0  0  0  0  0  0  0  0
    1.5061   -3.0291    0.0000 C   0  0  0  0  0  0  0  0  0  0  0  0
    2.2205   -3.4416    0.0000 C   0  0  0  0  0  0  0  0  0  0  0  0
    2.9350   -3.0291    0.0000 C   0  0  0  0  0  0  0  0  0  0  0  0
    2.9350   -2.2041    0.0000 C   0  0  0  0  0  0  0  0  0  0  0  0
   -4.2502    2.4801    0.0000 C   0  0  0  0  0  0  0  0  0  0  0  0
   -4.8022    1.8669    0.0000 C   0  0  0  0  0  0  0  0  0  0  0  0
   -4.5473    1.0823    0.0000 C   0  0  0  0  0  0  0  0  0  0  0  0
   -3.7403    0.9108    0.0000 C   0  0  0  0  0  0  0  0  0  0  0  0
   -3.4432    2.3086    0.0000 C   0  0  0  0  0  0  0  0  0  0  0  0
   -5.0993    0.4692    0.0000 C   0  0  0  0  0  0  0  0  0  0  0  0
   -5.6092    2.0384    0.0000 N   0  0  0  0  0  0  0  0  0  0  0  0
   -6.1612    1.4253    0.0000 C   0  0  0  0  0  0  0  0  0  0  0  0
   -5.8642    2.8230    0.0000 C   0  0  0  0  0  0  0  0  0  0  0  0
  1  2  1  0  0  0  0
  1  6  1  0  0  0  0
  3  4  1  0  0  0  0
  4  5  1  0  0  0  0
  5  6  1  0  0  0  0
  9  3  1  0  0  0  0
  3  2  2  0  0  0  0
  7  2  1  0  0  0  0
  7  8  1  0  0  0  0
  8  9  2  0  0  0  0
  7 10  1  0  0  0  0
 10 11  1  0  0  0  0
  6 12  1  1  0  0  0
 12 13  2  0  0  0  0
 12 14  1  0  0  0  0
  5 15  1  0  0  0  0
 15 16  1  0  0  0  0
 15 17  2  0  0  0  0
 16 18  1  0  0  0  0
 16 19  1  0  0  0  0
 24 19  2  0  0  0  0
 20 19  1  0  0  0  0
 20 21  2  0  0  0  0
 21 22  1  0  0  0  0
 22 23  2  0  0  0  0
 23 24  1  0  0  0  0
 25 18  2  0  0  0  0
 18 26  1  0  0  0  0
 25 29  1  0  0  0  0
 26 27  2  0  0  0  0
 27 28  1  0  0  0  0
 28 29  2  0  0  0  0
 33 11  2  0  0  0  0
 11 34  1  0  0  0  0
 30 31  1  0  0  0  0
 30 34  2  0  0  0  0
 31 32  2  0  0  0  0
 32 33  1  0  0  0  0
 32 35  1  0  0  0  0
 31 36  1  0  0  0  0
 36 37  1  0  0  0  0
 36 38  1  0  0  0  0
M  END
> <ID>
CHEBI:61014

> <NAME>
PD123319

> <DEFINITION>
An imidazopyridine consisting of 4,5,6,7-tetrahydro-1H-imidazo[4,5-c]pyridine having 4-(dimethylamino)-3-methylbenzyl, diphenylacetyl and carboxy and groups at positions 1, 5 and 6 respectively

> <STAR>
3

> <SYNONYM>
PD-123319; PD 123319

> <IUPAC_NAME>
(6S)-1-[4-(dimethylamino)-3-methylbenzyl]-5-(diphenylacetyl)-4,5,6,7-tetrahydro-1H-imidazo[4,5-c]pyridine-6-carboxylic acid

> <FORMULA>
C31H32N4O3

> <MASS>
508.61080

> <MONOISOTOPIC_MASS>
508.24744

> <CHARGE>
0

> <SMILES>
CN(C)c1ccc(Cn2cnc3CN([C@@H](Cc23)C(O)=O)C(=O)C(c2ccccc2)c2ccccc2)cc1C

> <INCHI>
InChI=1S/C31H32N4O3/c1-21-16-22(14-15-26(21)33(2)3)18-34-20-32-25-19-35(28(31(37)38)17-27(25)34)30(36)29(23-10-6-4-7-11-23)24-12-8-5-9-13-24/h4-16,20,28-29H,17-19H2,1-3H3,(H,37,38)/t28-/m0/s1

> <INCHIKEY>
YSTVFDAKLDMYCR-NDEPHWFRSA-N

> <CAS_REGISTRY_NUMBER>
130663-39-7

> <REAXYS_REGISTRY_NUMBER>
4848847

> <CHEMIDPLUS>
130663-39-7

> <KEGG_COMPOUND_ACCESSION>
C15553

> <PUBMED_CITATION>
10604953; 11429622; 11444501; 11606327; 12021572; 12072577; 15294451; 15703421; 16354763; 1956044; 7698212; 8549630; 8730746; 8874148; 9030909; 9296348; 9514193; 9554815; 9570482; 9720792

$$$$

Marvin  01181110402D          

 27 28  0  0  1  0            999 V2000
    9.3619   -6.4844    0.0000 C   0  0  2  0  0  0  0  0  0  0  0  0
    9.3619   -7.3096    0.0000 C   0  0  2  0  0  0  0  0  0  0  0  0
   10.0746   -7.7159    0.0000 C   0  0  1  0  0  0  0  0  0  0  0  0
   10.7871   -7.3096    0.0000 C   0  0  2  0  0  0  0  0  0  0  0  0
   10.7871   -6.4844    0.0000 C   0  0  1  0  0  0  0  0  0  0  0  0
   10.0746   -6.0658    0.0000 O   0  0  0  0  0  0  0  0  0  0  0  0
   11.4993   -6.0720    0.0000 O   0  0  0  0  0  0  0  0  0  0  0  0
   11.4975   -7.7211    0.0000 O   0  0  0  0  0  0  0  0  0  0  0  0
   10.0746   -8.5410    0.0000 O   0  0  0  0  0  0  0  0  0  0  0  0
    8.6474   -7.7211    0.0000 O   0  0  0  0  0  0  0  0  0  0  0  0
    8.6456   -6.0720    0.0000 C   0  0  0  0  0  0  0  0  0  0  0  0
    8.6432   -5.2470    0.0000 O   0  0  0  0  0  0  0  0  0  0  0  0
   10.7908   -4.0156    0.0000 C   0  0  2  0  0  0  0  0  0  0  0  0
   10.7908   -4.8406    0.0000 C   0  0  1  0  0  0  0  0  0  0  0  0
   11.4993   -5.2470    0.0000 C   0  0  1  0  0  0  0  0  0  0  0  0
   12.2120   -4.8406    0.0000 C   0  0  2  0  0  0  0  0  0  0  0  0
   12.2120   -4.0156    0.0000 C   0  0  1  0  0  0  0  0  0  0  0  0
   11.4993   -3.5968    0.0000 O   0  0  0  0  0  0  0  0  0  0  0  0
   12.9282   -3.6030    0.0000 O   0  0  0  0  0  0  0  0  0  0  0  0
   10.0746   -3.6030    0.0000 C   0  0  0  0  0  0  0  0  0  0  0  0
   10.0721   -2.7779    0.0000 O   0  0  0  0  0  0  0  0  0  0  0  0
   12.9264   -5.2521    0.0000 N   0  0  0  0  0  0  0  0  0  0  0  0
   10.0764   -5.2521    0.0000 O   0  0  0  0  0  0  0  0  0  0  0  0
   12.9251   -6.0771    0.0000 C   0  0  0  0  0  0  0  0  0  0  0  0
   13.6398   -6.4928    0.0000 C   0  0  0  0  0  0  0  0  0  0  0  0
   12.2096   -6.4908    0.0000 O   0  0  0  0  0  0  0  0  0  0  0  0
    7.9320   -6.4859    0.0000 O   0  0  0  0  0  0  0  0  0  0  0  0
  5  7  1  1  0  0  0
  2  1  1  0  0  0  0
  4  8  1  6  0  0  0
  1  6  1  0  0  0  0
 13 18  1  0  0  0  0
 14 15  1  0  0  0  0
 15 16  1  0  0  0  0
 16 17  1  0  0  0  0
 17 18  1  0  0  0  0
  3  9  1  1  0  0  0
 17 19  1  1  0  0  0
 15  7  1  1  0  0  0
  3  2  1  0  0  0  0
 13 20  1  1  0  0  0
  2 10  1  6  0  0  0
 20 21  1  0  0  0  0
  4  3  1  0  0  0  0
 16 22  1  6  0  0  0
  1 11  1  1  0  0  0
 14 23  1  1  0  0  0
  5  4  1  0  0  0  0
 22 24  1  0  0  0  0
 11 12  2  0  0  0  0
 24 25  1  0  0  0  0
 13 14  1  0  0  0  0
 24 26  2  0  0  0  0
  5  6  1  0  0  0  0
 11 27  1  0  0  0  0
M  END
> <ID>
CHEBI:61025

> <NAME>
beta-D-GlcpA-(1->3)-beta-D-GalpNAc

> <DEFINITION>
An amino disaccharide consisting of N-acetyl-β-D-galactosamine having a β-D-glucuronosyl residue attached at the 3-position.

> <STAR>
3

> <SYNONYM>
beta-D-glucuronosyl-(1->3)-2-acetamido-2-deoxy-beta-D-galactose; beta-D-GlcA-(1->3)-beta-D-GalNAc; 2-acetamido-2-deoxy-3-O-beta-D-glucopyranuronosyl-beta-D-galactopyranose

> <IUPAC_NAME>
beta-D-glucopyranuronosyl-(1->3)-2-acetamido-2-deoxy-beta-D-galactopyranose

> <FORMULA>
C14H23NO12

> <MASS>
397.33190

> <MONOISOTOPIC_MASS>
397.12203

> <CHARGE>
0

> <SMILES>
CC(=O)N[C@H]1[C@H](O)O[C@H](CO)[C@H](O)[C@@H]1O[C@@H]1O[C@@H]([C@@H](O)[C@H](O)[C@H]1O)C(O)=O

> <INCHI>
InChI=1S/C14H23NO12/c1-3(17)15-5-10(6(18)4(2-16)25-13(5)24)26-14-9(21)7(19)8(20)11(27-14)12(22)23/h4-11,13-14,16,18-21,24H,2H2,1H3,(H,15,17)(H,22,23)/t4-,5-,6+,7+,8+,9-,10-,11+,13-,14-/m1/s1

> <INCHIKEY>
LJORHONFMDUUHP-YHCGEDBISA-N

> <REAXYS_REGISTRY_NUMBER>
1693896

> <PUBMED_CITATION>
12695908; 16164415; 19575349

$$$$

Marvin  01181111502D          

 28 28  0  0  0  0            999 V2000
    6.1807  -13.0162    0.0000 C   0  0  0  0  0  0  0  0  0  0  0  0
    6.7641  -12.4328    0.0000 N   0  0  0  0  0  0  0  0  0  0  0  0
    6.1807  -13.8412    0.0000 C   0  0  0  0  0  0  0  0  0  0  0  0
    6.7641  -14.4245    0.0000 N   0  0  0  0  0  0  0  0  0  0  0  0
    7.5890  -12.4328    0.0000 C   0  0  0  0  0  0  0  0  0  0  0  0
    7.5890  -14.4245    0.0000 C   0  0  0  0  0  0  0  0  0  0  0  0
    8.1724  -13.0162    0.0000 C   0  0  0  0  0  0  0  0  0  0  0  0
    8.1724  -13.8412    0.0000 C   0  0  0  0  0  0  0  0  0  0  0  0
    9.6013  -13.0162    0.0000 C   0  0  0  0  0  0  0  0  0  0  0  0
    9.6013  -13.8412    0.0000 C   0  0  0  0  0  0  0  0  0  0  0  0
    8.8868  -12.6037    0.0000 N   0  0  0  0  0  0  0  0  0  0  0  0
    8.8868  -14.2537    0.0000 N   0  0  0  0  0  0  0  0  0  0  0  0
    8.8868  -11.7787    0.0000 C   0  0  0  0  0  0  0  0  0  0  0  0
    8.8868  -15.0787    0.0000 C   0  0  0  0  0  0  0  0  0  0  0  0
    6.4484  -11.6706    0.0000 C   0  0  0  0  0  0  0  0  0  0  0  0
    6.4484  -15.1867    0.0000 C   0  0  0  0  0  0  0  0  0  0  0  0
    9.6013  -11.3662    0.0000 C   0  0  0  0  0  0  0  0  0  0  0  0
    9.6013  -10.5412    0.0000 O   0  0  0  0  0  0  0  0  0  0  0  0
   10.3158  -11.7787    0.0000 O   0  0  0  0  0  0  0  0  0  0  0  0
    9.6012  -15.4912    0.0000 C   0  0  0  0  0  0  0  0  0  0  0  0
   10.3157  -15.0788    0.0000 O   0  0  0  0  0  0  0  0  0  0  0  0
    9.6012  -16.3163    0.0000 O   0  0  0  0  0  0  0  0  0  0  0  0
    5.6304  -11.5629    0.0000 C   0  0  0  0  0  0  0  0  0  0  0  0
    5.1282  -12.2173    0.0000 O   0  0  0  0  0  0  0  0  0  0  0  0
    5.3147  -10.8006    0.0000 O   0  0  0  0  0  0  0  0  0  0  0  0
    5.6304  -15.2944    0.0000 C   0  0  0  0  0  0  0  0  0  0  0  0
    5.3147  -16.0566    0.0000 O   0  0  0  0  0  0  0  0  0  0  0  0
    5.1282  -14.6398    0.0000 O   0  0  0  0  0  0  0  0  0  0  0  0
  2  1  1  0  0  0  0
  3  1  1  0  0  0  0
  5  2  1  0  0  0  0
  4  3  1  0  0  0  0
  6  4  1  0  0  0  0
  7  5  1  0  0  0  0
  8  6  1  0  0  0  0
 10  9  1  0  0  0  0
 11  9  1  0  0  0  0
 12 10  1  0  0  0  0
  7 11  1  0  0  0  0
  8 12  1  0  0  0  0
 11 13  1  0  0  0  0
 12 14  1  0  0  0  0
  2 15  1  0  0  0  0
  4 16  1  0  0  0  0
 18 17  2  0  0  0  0
 19 17  1  0  0  0  0
 13 17  1  0  0  0  0
 21 20  2  0  0  0  0
 22 20  1  0  0  0  0
 14 20  1  0  0  0  0
 24 23  2  0  0  0  0
 25 23  1  0  0  0  0
 15 23  1  0  0  0  0
 27 26  2  0  0  0  0
 28 26  1  0  0  0  0
 16 26  1  0  0  0  0
M  END
> <ID>
CHEBI:61028

> <NAME>
DOTA

> <DEFINITION>
An azamacrocyle in which four nitrogen atoms at positions 1, 4, 7 and 10 of a twelve-membered ring are each substituted with a carboxymethyl group.

> <STAR>
3

> <SYNONYM>
DOTA acid; 2,2',2',2'''-(1,4,7,10-Tetraazacyclododecane-1,4,7,10-tetryl)tetraacetic acid; 1,4,7,10-Tetraazacyclododecane-N,N',N'',N'''-tetraacetic acid; 1,4,7,10-Tetraazacyclododecane-1,4,7,10-tetraacetic acid; 1,4,7,10-Dota

> <IUPAC_NAME>
2,2',2'',2'''-(1,4,7,10-tetraazacyclododecane-1,4,7,10-tetrayl)tetraacetic acid

> <INN>
tetraxetanum; tetraxetan; tetraxetan; tetraxetan

> <FORMULA>
C16H28N4O8

> <MASS>
404.41550

> <MONOISOTOPIC_MASS>
404.19071

> <CHARGE>
0

> <SMILES>
OC(=O)CN1CCN(CCN(CCN(CC1)CC(O)=O)CC(O)=O)CC(O)=O

> <INCHI>
InChI=1S/C16H28N4O8/c21-13(22)9-17-1-2-18(10-14(23)24)5-6-20(12-16(27)28)8-7-19(4-3-17)11-15(25)26/h1-12H2,(H,21,22)(H,23,24)(H,25,26)(H,27,28)

> <INCHIKEY>
WDLRUFUQRNWCPK-UHFFFAOYSA-N

> <CAS_REGISTRY_NUMBER>
60239-18-1

> <REAXYS_REGISTRY_NUMBER>
1186987

> <CHEMIDPLUS>
60239-18-1

> <KEGG_DRUG_ACCESSION>
D06092

> <WIKIPEDIA_ACCESSION>
DOTA_(chelator)

> <PUBMED_CITATION>
20641770; 23392443; 24995911; 29398968; 31439583; 8772643

$$$$

Marvin  01181111542D          

 27 28  0  0  1  0            999 V2000
    9.3619   -6.4844    0.0000 C   0  0  2  0  0  0  0  0  0  0  0  0
    9.3619   -7.3096    0.0000 C   0  0  2  0  0  0  0  0  0  0  0  0
   10.0746   -7.7159    0.0000 C   0  0  1  0  0  0  0  0  0  0  0  0
   10.7871   -7.3096    0.0000 C   0  0  2  0  0  0  0  0  0  0  0  0
   10.7871   -6.4844    0.0000 C   0  0  1  0  0  0  0  0  0  0  0  0
   10.0746   -6.0658    0.0000 O   0  0  0  0  0  0  0  0  0  0  0  0
   11.4993   -6.0720    0.0000 O   0  0  0  0  0  0  0  0  0  0  0  0
   11.4975   -7.7211    0.0000 O   0  0  0  0  0  0  0  0  0  0  0  0
   10.0746   -8.5410    0.0000 O   0  0  0  0  0  0  0  0  0  0  0  0
    8.6474   -7.7211    0.0000 O   0  0  0  0  0  0  0  0  0  0  0  0
    8.6456   -6.0720    0.0000 C   0  0  0  0  0  0  0  0  0  0  0  0
    8.6432   -5.2470    0.0000 O   0  0  0  0  0  0  0  0  0  0  0  0
   10.7908   -4.0156    0.0000 C   0  0  2  0  0  0  0  0  0  0  0  0
   10.7908   -4.8406    0.0000 C   0  0  2  0  0  0  0  0  0  0  0  0
   11.4993   -5.2470    0.0000 C   0  0  1  0  0  0  0  0  0  0  0  0
   12.2120   -4.8406    0.0000 C   0  0  2  0  0  0  0  0  0  0  0  0
   12.2120   -4.0156    0.0000 C   0  0  1  0  0  0  0  0  0  0  0  0
   11.4993   -3.5968    0.0000 O   0  0  0  0  0  0  0  0  0  0  0  0
   12.9282   -3.6030    0.0000 O   0  0  0  0  0  0  0  0  0  0  0  0
   10.0746   -3.6030    0.0000 C   0  0  0  0  0  0  0  0  0  0  0  0
   10.0721   -2.7779    0.0000 O   0  0  0  0  0  0  0  0  0  0  0  0
   12.9264   -5.2521    0.0000 N   0  0  0  0  0  0  0  0  0  0  0  0
   10.0764   -5.2521    0.0000 O   0  0  0  0  0  0  0  0  0  0  0  0
   12.9251   -6.0771    0.0000 C   0  0  0  0  0  0  0  0  0  0  0  0
   13.6398   -6.4928    0.0000 C   0  0  0  0  0  0  0  0  0  0  0  0
   12.2096   -6.4908    0.0000 O   0  0  0  0  0  0  0  0  0  0  0  0
    7.9320   -6.4859    0.0000 O   0  0  0  0  0  0  0  0  0  0  0  0
  5  7  1  1  0  0  0
  2  1  1  0  0  0  0
  4  8  1  6  0  0  0
  1  6  1  0  0  0  0
 13 18  1  0  0  0  0
 14 15  1  0  0  0  0
 15 16  1  0  0  0  0
 16 17  1  0  0  0  0
 17 18  1  0  0  0  0
  3  9  1  1  0  0  0
 17 19  1  1  0  0  0
 15  7  1  1  0  0  0
  3  2  1  0  0  0  0
 13 20  1  1  0  0  0
  2 10  1  6  0  0  0
 20 21  1  0  0  0  0
  4  3  1  0  0  0  0
 16 22  1  6  0  0  0
  1 11  1  1  0  0  0
 14 23  1  6  0  0  0
  5  4  1  0  0  0  0
 22 24  1  0  0  0  0
 11 12  2  0  0  0  0
 24 25  1  0  0  0  0
 13 14  1  0  0  0  0
 24 26  2  0  0  0  0
  5  6  1  0  0  0  0
 11 27  1  0  0  0  0
M  END
> <ID>
CHEBI:61029

> <NAME>
beta-D-GlcpA-(1->3)-beta-D-GlcpNAc

> <DEFINITION>
An amino disaccharide consisting of N-acetyl-β-D-glucosamine having a β-D-glucuronosyl residue attached at the 3-position.

> <STAR>
3

> <SYNONYM>
GlcAbeta1-3GlcNAcbeta; GlcAb1-3GlcNAcb; beta-D-glucuronosyl-(1->3)-2-acetamido-2-deoxy-beta-D-glucose; beta-D-GlcA-(1->3)-beta-D-GlcNAc; 2-acetamido-2-deoxy-3-O-beta-D-glucopyranuronosyl-beta-D-glucopyranose

> <IUPAC_NAME>
beta-D-glucopyranuronosyl-(1->3)-2-acetamido-2-deoxy-beta-D-glucopyranose

> <FORMULA>
C14H23NO12

> <MASS>
397.33190

> <MONOISOTOPIC_MASS>
397.12203

> <CHARGE>
0

> <SMILES>
CC(=O)N[C@H]1[C@H](O)O[C@H](CO)[C@@H](O)[C@@H]1O[C@@H]1O[C@@H]([C@@H](O)[C@H](O)[C@H]1O)C(O)=O

> <INCHI>
InChI=1S/C14H23NO12/c1-3(17)15-5-10(6(18)4(2-16)25-13(5)24)26-14-9(21)7(19)8(20)11(27-14)12(22)23/h4-11,13-14,16,18-21,24H,2H2,1H3,(H,15,17)(H,22,23)/t4-,5-,6-,7+,8+,9-,10-,11+,13-,14-/m1/s1

> <INCHIKEY>
LJORHONFMDUUHP-VOGNPWKQSA-N

> <PUBMED_CITATION>
16164415; 19443021; 6182692

$$$$

Marvin  01181113362D          

 41 43  0  0  1  0            999 V2000
    9.3619   -6.4844    0.0000 C   0  0  2  0  0  0  0  0  0  0  0  0
    9.3619   -7.3096    0.0000 C   0  0  2  0  0  0  0  0  0  0  0  0
   10.0746   -7.7159    0.0000 C   0  0  1  0  0  0  0  0  0  0  0  0
   10.7871   -7.3096    0.0000 C   0  0  2  0  0  0  0  0  0  0  0  0
   10.7871   -6.4844    0.0000 C   0  0  1  0  0  0  0  0  0  0  0  0
   10.0746   -6.0658    0.0000 O   0  0  0  0  0  0  0  0  0  0  0  0
   11.4993   -6.0720    0.0000 O   0  0  0  0  0  0  0  0  0  0  0  0
   11.4975   -7.7211    0.0000 O   0  0  0  0  0  0  0  0  0  0  0  0
   10.0746   -8.5410    0.0000 O   0  0  0  0  0  0  0  0  0  0  0  0
    8.6474   -7.7211    0.0000 O   0  0  0  0  0  0  0  0  0  0  0  0
    8.6456   -6.0720    0.0000 C   0  0  0  0  0  0  0  0  0  0  0  0
    8.6432   -5.2470    0.0000 O   0  0  0  0  0  0  0  0  0  0  0  0
   10.7908   -4.0156    0.0000 C   0  0  2  0  0  0  0  0  0  0  0  0
   10.7908   -4.8406    0.0000 C   0  0  1  0  0  0  0  0  0  0  0  0
   11.4993   -5.2470    0.0000 C   0  0  1  0  0  0  0  0  0  0  0  0
   12.2120   -4.8406    0.0000 C   0  0  2  0  0  0  0  0  0  0  0  0
   12.2120   -4.0156    0.0000 C   0  0  1  0  0  0  0  0  0  0  0  0
   11.4993   -3.5968    0.0000 O   0  0  0  0  0  0  0  0  0  0  0  0
   12.9282   -3.6030    0.0000 O   0  0  0  0  0  0  0  0  0  0  0  0
   10.0746   -3.6030    0.0000 C   0  0  0  0  0  0  0  0  0  0  0  0
   12.9264   -5.2521    0.0000 N   0  0  0  0  0  0  0  0  0  0  0  0
   10.0764   -5.2521    0.0000 O   0  0  0  0  0  0  0  0  0  0  0  0
   12.9251   -6.0771    0.0000 C   0  0  0  0  0  0  0  0  0  0  0  0
   13.6398   -6.4928    0.0000 C   0  0  0  0  0  0  0  0  0  0  0  0
   12.2096   -6.4908    0.0000 O   0  0  0  0  0  0  0  0  0  0  0  0
    7.9320   -6.4859    0.0000 O   0  0  0  0  0  0  0  0  0  0  0  0
   10.0738   -2.7780    0.0000 O   0  0  0  0  0  0  0  0  0  0  0  0
    7.2212   -2.7969    0.0000 O   0  0  0  0  0  0  0  0  0  0  0  0
    8.6352   -1.1442    0.0000 C   0  0  2  0  0  0  0  0  0  0  0  0
    7.9240   -1.5622    0.0000 C   0  0  1  0  0  0  0  0  0  0  0  0
    7.9325   -2.3789    0.0000 C   0  0  1  0  0  0  0  0  0  0  0  0
    8.6440   -2.7875    0.0000 C   0  0  2  0  0  0  0  0  0  0  0  0
    9.3553   -2.3695    0.0000 C   0  0  1  0  0  0  0  0  0  0  0  0
    9.3553   -1.5429    0.0000 O   0  0  0  0  0  0  0  0  0  0  0  0
    8.6281   -0.3177    0.0000 C   0  0  0  0  0  0  0  0  0  0  0  0
    9.3382    0.1025    0.0000 O   0  0  0  0  0  0  0  0  0  0  0  0
    8.6511   -3.6119    0.0000 N   0  0  0  0  0  0  0  0  0  0  0  0
    7.2072   -1.1548    0.0000 O   0  0  0  0  0  0  0  0  0  0  0  0
    7.9392   -4.0289    0.0000 C   0  0  0  0  0  0  0  0  0  0  0  0
    7.9428   -4.8555    0.0000 C   0  0  0  0  0  0  0  0  0  0  0  0
    7.2200   -3.6214    0.0000 O   0  0  0  0  0  0  0  0  0  0  0  0
  5  7  1  1  0  0  0
  2  1  1  0  0  0  0
  4  8  1  6  0  0  0
  1  6  1  0  0  0  0
 13 18  1  0  0  0  0
 14 15  1  0  0  0  0
 15 16  1  0  0  0  0
 16 17  1  0  0  0  0
 17 18  1  0  0  0  0
  3  9  1  1  0  0  0
 17 19  1  1  0  0  0
 15  7  1  1  0  0  0
  3  2  1  0  0  0  0
 13 20  1  1  0  0  0
  2 10  1  6  0  0  0
  4  3  1  0  0  0  0
 16 21  1  6  0  0  0
  1 11  1  1  0  0  0
 14 22  1  1  0  0  0
  5  4  1  0  0  0  0
 21 23  1  0  0  0  0
 11 12  2  0  0  0  0
 23 24  1  0  0  0  0
 13 14  1  0  0  0  0
 23 25  2  0  0  0  0
  5  6  1  0  0  0  0
 11 26  1  0  0  0  0
 20 27  1  0  0  0  0
 29 34  1  0  0  0  0
 30 31  1  0  0  0  0
 31 32  1  0  0  0  0
 32 33  1  0  0  0  0
 33 34  1  0  0  0  0
 33 27  1  1  0  0  0
 31 28  1  1  0  0  0
 29 35  1  1  0  0  0
 35 36  1  0  0  0  0
 32 37  1  6  0  0  0
 30 38  1  1  0  0  0
 37 39  1  0  0  0  0
 39 40  1  0  0  0  0
 29 30  1  0  0  0  0
 39 41  2  0  0  0  0
M  END
> <ID>
CHEBI:61034

> <NAME>
beta-D-GalpNAc-(1->6)-[beta-D-GlcpA-(1->3)]-beta-D-GalpNAc

> <DEFINITION>
A branched amino trisaccharide consisting of N-acetyl-β-D-galactosamine having β-D-glucuronosyl and N-acetyl-β-D-galactosaminyl residues attached at the 3- and 6-positions respectively.

> <STAR>
3

> <SYNONYM>
beta-D-GalNAc-(1->6)-[beta-D-GlcA-(1->3)]-beta-D-GalNAc; 2-acetamido-2-deoxy-beta-D-galactosyl-(1->6)-[beta-D-glucuronosyl-(1->3)]-2-acetamido-2-deoxy-beta-D-galactose

> <IUPAC_NAME>
2-acetamido-2-deoxy-beta-D-galactopyranosyl-(1->6)-[beta-D-glucopyranuronosyl-(1->3)]-2-acetamido-2-deoxy-beta-D-galactopyranose

> <FORMULA>
C22H36N2O17

> <MASS>
600.52440

> <MONOISOTOPIC_MASS>
600.20140

> <CHARGE>
0

> <SMILES>
CC(=O)N[C@H]1[C@H](O)O[C@H](CO[C@@H]2O[C@H](CO)[C@H](O)[C@H](O)[C@H]2NC(C)=O)[C@H](O)[C@@H]1O[C@@H]1O[C@@H]([C@@H](O)[C@H](O)[C@H]1O)C(O)=O

> <INCHI>
InChI=1S/C22H36N2O17/c1-5(26)23-9-13(30)11(28)7(3-25)39-21(9)37-4-8-12(29)17(10(20(36)38-8)24-6(2)27)40-22-16(33)14(31)15(32)18(41-22)19(34)35/h7-18,20-22,25,28-33,36H,3-4H2,1-2H3,(H,23,26)(H,24,27)(H,34,35)/t7-,8-,9-,10-,11+,12+,13-,14+,15+,16-,17-,18+,20-,21-,22-/m1/s1

> <INCHIKEY>
WZPSDHIECGECAN-SZILVZKPSA-N

> <PUBMED_CITATION>
12695908; 16164415

$$$$

Marvin  01191114412D          

 15 15  0  0  1  0            999 V2000
    9.7846   -4.2592    0.0000 C   0  0  0  0  0  0  0  0  0  0  0  0
    9.7846   -5.0842    0.0000 C   0  0  0  0  0  0  0  0  0  0  0  0
   11.2135   -4.2592    0.0000 C   0  0  0  0  0  0  0  0  0  0  0  0
   11.2135   -5.0842    0.0000 C   0  0  0  0  0  0  0  0  0  0  0  0
   10.4991   -3.8468    0.0000 C   0  0  0  0  0  0  0  0  0  0  0  0
   13.3569   -3.8468    0.0000 C   0  0  0  0  0  0  0  0  0  0  0  0
   13.3569   -3.0218    0.0000 O   0  0  0  0  0  0  0  0  0  0  0  0
   12.6424   -4.2592    0.0000 C   0  0  1  0  0  0  0  0  0  0  0  0
   11.9279   -3.8468    0.0000 C   0  0  0  0  0  0  0  0  0  0  0  0
   14.0713   -4.2592    0.0000 O   0  0  0  0  0  0  0  0  0  0  0  0
    9.0701   -5.4967    0.0000 O   0  0  0  0  0  0  0  0  0  0  0  0
   10.4991   -5.4967    0.0000 C   0  0  0  0  0  0  0  0  0  0  0  0
   10.4991   -6.3217    0.0000 O   0  0  0  0  0  0  0  0  0  0  0  0
   12.2299   -4.9737    0.0000 C   0  0  0  0  0  0  0  0  0  0  0  0
   13.0549   -4.9737    0.0000 N   0  0  0  0  0  0  0  0  0  0  0  0
  2  1  2  0  0  0  0
 11  2  1  0  0  0  0
  9  3  1  0  0  0  0
  4  3  1  0  0  0  0
  1  5  1  0  0  0  0
  5  3  2  0  0  0  0
  2 12  1  0  0  0  0
 12  4  2  0  0  0  0
  6  7  2  0  0  0  0
  6  8  1  0  0  0  0
 10  6  1  0  0  0  0
  8  9  1  0  0  0  0
 12 13  1  0  0  0  0
  8 14  1  0  0  0  0
  8 15  1  1  0  0  0
M  END
> <ID>
CHEBI:61058

> <NAME>
alpha-methyl-L-dopa

> <DEFINITION>
A derivative of L-tyrosine having a methyl group at the α-position and an additional hydroxy group at the 3-position on the phenyl ring.

> <STAR>
3

> <SYNONYM>
Methyldopa anhydrous; Methyldopa; Methyl-L-dopa; levo-3-(3,4-Dihydroxyphenyl)-2-methylalanine; L-Methyl Dopa; L-alpha-Methyldopa; L-alpha-Methyl-3,4-dihydroxyphenylalanine; l-3-(3,4-Dihydroxyphenyl)-2-methylalanine; L-2-Amino-2-methyl-3-(3,4-dihydroxyphenyl)propionic acid; L-(alpha-Md); L-(-)-alpha-Methyl-beta-(3,4-dihydroxyphenyl)alanine; L-(-)-3-(3,4-Dihydroxyphenyl)-2-methylalanine; L(-)-beta-(3,4-Dihydroxyphenyl)-alpha-methylalanine; AMD; Alphamethyldopa; alpha-Methyldopa; alpha-Methyldihydroxyphenylalanine; alpha-Methyl-L-3,4-dihydroxyphenylalanine; alpha-Methyl-beta-(3,4-dihydroxyphenyl)-L-alanine; alpha-Methyl dopa; Alpha medopa; 3-Hydroxy-alpha-methyl-L-tyrosine; (S)-(-)-alpha-Methyldopa; (2S)-2-amino-3-(3,4-dihydroxyphenyl)-2-methylpropanoic acid

> <IUPAC_NAME>
3-hydroxy-alpha-methyl-L-tyrosine

> <INN>
metildopa; methyldopum; methyldopa

> <FORMULA>
C10H13NO4

> <MASS>
211.21450

> <MONOISOTOPIC_MASS>
211.08446

> <CHARGE>
0

> <SMILES>
C[C@](N)(Cc1ccc(O)c(O)c1)C(O)=O

> <INCHI>
InChI=1S/C10H13NO4/c1-10(11,9(14)15)5-6-2-3-7(12)8(13)4-6/h2-4,12-13H,5,11H2,1H3,(H,14,15)/t10-/m0/s1

> <INCHIKEY>
CJCSPKMFHVPWAR-JTQLQIEISA-N

> <CAS_REGISTRY_NUMBER>
555-30-6

> <REAXYS_REGISTRY_NUMBER>
2807721

> <CHEMIDPLUS>
555-30-6

> <DRUGBANK_ACCESSION>
DB00968

> <HMDB_ACCESSION>
HMDB0011754

> <KEGG_COMPOUND_ACCESSION>
C07194

> <KEGG_DRUG_ACCESSION>
D08205

> <LINCS_ACCESSION>
LSM-5596

> <WIKIPEDIA_ACCESSION>
Methyldopa

> <PUBMED_CITATION>
10576686; 11901210; 29438107; 8301021

$$$$

Marvin  02151111592D          

 22 22  0  0  1  0            999 V2000
   11.0965   -8.1990    0.0000 C   0  0  2  0  0  0  0  0  0  0  0  0
   11.0965   -9.0239    0.0000 C   0  0  1  0  0  0  0  0  0  0  0  0
   10.3820   -7.7866    0.0000 O   0  0  0  0  0  0  0  0  0  0  0  0
   10.3820   -9.4364    0.0000 C   0  0  2  0  0  0  0  0  0  0  0  0
    9.6676   -8.1990    0.0000 C   0  0  1  0  0  0  0  0  0  0  0  0
    9.6676   -9.0239    0.0000 C   0  0  1  0  0  0  0  0  0  0  0  0
   11.8108   -7.7865    0.0000 O   0  0  0  0  0  0  0  0  0  0  0  0
   11.8108   -9.4364    0.0000 O   0  0  0  0  0  0  0  0  0  0  0  0
   10.3820  -10.2613    0.0000 O   0  0  0  0  0  0  0  0  0  0  0  0
    8.9531   -9.4364    0.0000 N   0  0  0  0  0  0  0  0  0  0  0  0
    8.9531   -7.7866    0.0000 C   0  0  0  0  0  0  0  0  0  0  0  0
   12.5252   -9.0239    0.0000 C   0  0  0  0  0  0  0  0  0  0  0  0
    8.2357   -9.0239    0.0000 C   0  0  0  0  0  0  0  0  0  0  0  0
    6.8071   -9.0245    0.0000 C   0  0  0  0  0  0  0  0  0  0  0  0
    6.8071   -8.2420    0.0000 O   0  0  0  0  0  0  0  0  0  0  0  0
    6.2207   -9.6747    0.0000 C   0  0  0  0  0  0  0  0  0  0  0  0
    6.0120   -8.8483    0.0000 C   0  0  0  0  0  0  0  0  0  0  0  0
   12.5253   -8.1990    0.0000 C   0  0  0  0  0  0  0  0  0  0  0  0
   13.2397   -7.7865    0.0000 C   0  0  0  0  0  0  0  0  0  0  0  0
   13.9542   -8.1990    0.0000 N   0  0  0  0  0  0  0  0  0  0  0  0
    7.5216   -9.4370    0.0000 C   0  0  0  0  0  0  0  0  0  0  0  0
    8.2346   -8.1989    0.0000 O   0  0  0  0  0  0  0  0  0  0  0  0
  1  2  1  0  0  0  0
  1  3  1  0  0  0  0
  2  4  1  0  0  0  0
  3  5  1  0  0  0  0
  4  6  1  0  0  0  0
  5  6  1  0  0  0  0
  1  7  1  6  0  0  0
  2  8  1  6  0  0  0
  4  9  1  1  0  0  0
  6 10  1  6  0  0  0
  5 11  1  1  0  0  0
  8 12  1  0  0  0  0
 10 13  1  0  0  0  0
 14 15  1  0  0  0  0
 14 16  1  0  0  0  0
 14 17  1  0  0  0  0
  7 18  1  0  0  0  0
 18 19  1  0  0  0  0
 19 20  1  0  0  0  0
 13 21  1  0  0  0  0
 21 14  1  0  0  0  0
 13 22  2  0  0  0  0
M  END
> <ID>
CHEBI:61060

> <NAME>
2-aminoethyl 4,6-dideoxy-4-[(3-hydroxy-3-methylbutanoyl)amino]-2-O-methyl-alpha-D-glucoside

> <DEFINITION>
An aminoglycoside composed of glucose deoxygenated at C-4 and C-6 and having aminoethyl, methyl and 3-hydroxy-3-methylbutanamido substituents at positions 1, 2 and 4, respectively.

> <STAR>
3

> <SYNONYM>
2-aminoethylanthroside; 2-aminoethyl-4,6-dideoxy-4-(3-hydroxy-3-methylbutanamido)-2-O-methyl-beta-D-glucoside; 2-aminoethyl-4,6-dideoxy-4-(3-hydroxy-3-methylbutanamido)-2-O-methyl-beta-D-glucopyranoside; 2-aminoethyl anthroside

> <IUPAC_NAME>
2-aminoethyl 4,6-dideoxy-4-[(3-hydroxy-3-methylbutanoyl)amino]-2-O-methyl-alpha-D-glucopyranoside

> <FORMULA>
C14H28N2O6

> <MASS>
320.38190

> <MONOISOTOPIC_MASS>
320.19474

> <CHARGE>
0

> <SMILES>
CO[C@@H]1[C@@H](O)[C@H](NC(=O)CC(C)(C)O)[C@@H](C)O[C@@H]1OCCN

> <INCHI>
InChI=1S/C14H28N2O6/c1-8-10(16-9(17)7-14(2,3)19)11(18)12(20-4)13(22-8)21-6-5-15/h8,10-13,18-19H,5-7,15H2,1-4H3,(H,16,17)/t8-,10-,11+,12-,13+/m1/s1

> <INCHIKEY>
RGUBEKWKCQRYRN-ZMHPAJMFSA-N

> <PUBMED_CITATION>
18155682

$$$$

Marvin  01191115152D          

 14 13  0  0  0  0            999 V2000
   14.4894  -17.1984    0.0000 C   0  0  0  0  0  0  0  0  0  0  0  0
   14.4894  -16.3734    0.0000 O   0  0  0  0  0  0  0  0  0  0  0  0
   13.7748  -17.6109    0.0000 C   0  0  0  0  0  0  0  0  0  0  0  0
   13.7748  -18.4359    0.0000 N   0  0  0  0  0  0  0  0  0  0  0  0
   10.2024  -17.1984    0.0000 N   0  0  0  0  0  0  0  0  0  0  0  0
   10.9169  -17.6109    0.0000 C   0  0  0  0  0  0  0  0  0  0  0  0
   13.0604  -17.1984    0.0000 C   0  0  0  0  0  0  0  0  0  0  0  0
   11.6314  -17.1984    0.0000 C   0  0  0  0  0  0  0  0  0  0  0  0
   12.3459  -17.6109    0.0000 C   0  0  0  0  0  0  0  0  0  0  0  0
   15.2038  -17.6109    0.0000 O   0  0  0  0  0  0  0  0  0  0  0  0
    9.4879  -17.6109    0.0000 C   0  0  0  0  0  0  0  0  0  0  0  0
    8.7734  -17.1984    0.0000 C   0  0  0  0  0  0  0  0  0  0  0  0
    8.0590  -17.6109    0.0000 C   0  0  0  0  0  0  0  0  0  0  0  0
    8.7735  -16.3734    0.0000 O   0  0  0  0  0  0  0  0  0  0  0  0
  1  2  2  0  0  0  0
  1  3  1  0  0  0  0
  3  4  1  0  0  0  0
  3  7  1  0  0  0  0
  5  6  1  0  0  0  0
  6  8  1  0  0  0  0
  7  9  1  0  0  0  0
  8  9  1  0  0  0  0
 10  1  1  0  0  0  0
  5 11  1  0  0  0  0
 11 12  1  0  0  0  0
 12 13  1  0  0  0  0
 12 14  2  0  0  0  0
M  END
> <ID>
CHEBI:61061

> <NAME>
N(6)-acetonyllysine

> <DEFINITION>
A lysine derivative in which the Nε of the amino acid carries an acetonyl group.

> <STAR>
3

> <SYNONYM>
N(epsilon)-acetonyllysine

> <IUPAC_NAME>
N(6)-(2-oxopropyl)lysine

> <FORMULA>
C9H18N2O3

> <MASS>
202.25080

> <MONOISOTOPIC_MASS>
202.13174

> <CHARGE>
0

> <SMILES>
CC(=O)CNCCCCC(N)C(O)=O

> <INCHI>
InChI=1S/C9H18N2O3/c1-7(12)6-11-5-3-2-4-8(10)9(13)14/h8,11H,2-6,10H2,1H3,(H,13,14)

> <INCHIKEY>
HHNPKRUVIGOOII-UHFFFAOYSA-N

> <PUBMED_CITATION>
8672512

$$$$

Marvin  01191115262D          

 14 13  0  0  0  0            999 V2000
   14.4892  -17.1983    0.0000 C   0  0  0  0  0  0  0  0  0  0  0  0
   14.4892  -16.3733    0.0000 O   0  0  0  0  0  0  0  0  0  0  0  0
   13.7747  -17.6108    0.0000 C   0  0  0  0  0  0  0  0  0  0  0  0
   13.7747  -18.4358    0.0000 N   0  0  0  0  0  0  0  0  0  0  0  0
   10.2023  -17.1983    0.0000 N   0  0  0  0  0  0  0  0  0  0  0  0
   10.9168  -17.6108    0.0000 C   0  0  0  0  0  0  0  0  0  0  0  0
   13.0602  -17.1983    0.0000 C   0  0  0  0  0  0  0  0  0  0  0  0
   11.6313  -17.1983    0.0000 C   0  0  0  0  0  0  0  0  0  0  0  0
   12.3458  -17.6108    0.0000 C   0  0  0  0  0  0  0  0  0  0  0  0
   15.2037  -17.6108    0.0000 O   0  0  0  0  0  0  0  0  0  0  0  0
    9.4878  -17.6108    0.0000 C   0  0  0  0  0  0  0  0  0  0  0  0
    8.7733  -17.1982    0.0000 C   0  0  0  0  0  0  0  0  0  0  0  0
    8.0589  -17.6107    0.0000 N   0  0  0  0  0  0  0  0  0  0  0  0
    8.7734  -16.3732    0.0000 O   0  0  0  0  0  0  0  0  0  0  0  0
  1  2  2  0  0  0  0
  1  3  1  0  0  0  0
  3  4  1  0  0  0  0
  3  7  1  0  0  0  0
  5  6  1  0  0  0  0
  6  8  1  0  0  0  0
  7  9  1  0  0  0  0
  8  9  1  0  0  0  0
 10  1  1  0  0  0  0
  5 11  1  0  0  0  0
 11 12  1  0  0  0  0
 12 13  1  0  0  0  0
 12 14  2  0  0  0  0
M  END
> <ID>
CHEBI:61062

> <NAME>
N(6)-carbamoylmethyllysine

> <DEFINITION>
A lysine derivative in which the Nε of the amino acid carries a carbamoylmethyl group.

> <STAR>
3

> <SYNONYM>
N(epsilon)-carbamoylmethyllysine

> <IUPAC_NAME>
N(6)-(2-amino-2-oxoethyl)lysine

> <FORMULA>
C8H17N3O3

> <MASS>
203.23890

> <MONOISOTOPIC_MASS>
203.12699

> <CHARGE>
0

> <SMILES>
NC(CCCCNCC(N)=O)C(O)=O

> <INCHI>
InChI=1S/C8H17N3O3/c9-6(8(13)14)3-1-2-4-11-5-7(10)12/h6,11H,1-5,9H2,(H2,10,12)(H,13,14)

> <INCHIKEY>
WSFRFBSAMZAMTL-UHFFFAOYSA-N

> <PUBMED_CITATION>
8672512

$$$$

Marvin  01191115392D          

 15 14  0  0  0  0            999 V2000
   14.4894  -17.1984    0.0000 C   0  0  0  0  0  0  0  0  0  0  0  0
   14.4894  -16.3734    0.0000 O   0  0  0  0  0  0  0  0  0  0  0  0
   13.7748  -17.6109    0.0000 C   0  0  0  0  0  0  0  0  0  0  0  0
   13.7748  -18.4359    0.0000 N   0  0  0  0  0  0  0  0  0  0  0  0
   10.2024  -17.1984    0.0000 N   0  0  0  0  0  0  0  0  0  0  0  0
   10.9169  -17.6109    0.0000 C   0  0  0  0  0  0  0  0  0  0  0  0
   13.0604  -17.1984    0.0000 C   0  0  0  0  0  0  0  0  0  0  0  0
   11.6314  -17.1984    0.0000 C   0  0  0  0  0  0  0  0  0  0  0  0
   12.3459  -17.6109    0.0000 C   0  0  0  0  0  0  0  0  0  0  0  0
   15.2038  -17.6109    0.0000 O   0  0  0  0  0  0  0  0  0  0  0  0
    9.4879  -17.6109    0.0000 C   0  0  0  0  0  0  0  0  0  0  0  0
    8.7734  -17.1984    0.0000 C   0  0  0  0  0  0  0  0  0  0  0  0
    8.0590  -17.6109    0.0000 C   0  0  0  0  0  0  0  0  0  0  0  0
    7.3445  -17.1984    0.0000 O   0  0  0  0  0  0  0  0  0  0  0  0
    8.0590  -18.4359    0.0000 O   0  0  0  0  0  0  0  0  0  0  0  0
  1  2  2  0  0  0  0
  1  3  1  0  0  0  0
  3  4  1  0  0  0  0
  3  7  1  0  0  0  0
  5  6  1  0  0  0  0
  6  8  1  0  0  0  0
  7  9  1  0  0  0  0
  8  9  1  0  0  0  0
 10  1  1  0  0  0  0
  5 11  1  0  0  0  0
 11 12  1  0  0  0  0
 12 13  1  0  0  0  0
 13 14  1  0  0  0  0
 13 15  2  0  0  0  0
M  END
> <ID>
CHEBI:61063

> <NAME>
N(6)-(2-carboxyethyl)lysine

> <DEFINITION>
A lysine derivative in which the Nε of the amino acid carries a 2-carboxyethyl group.

> <STAR>
3

> <SYNONYM>
N(epsilon)-(carboxyethyl)lysine; N(epsilon)-(2-carboxyethyl)lysine

> <IUPAC_NAME>
N(6)-(2-carboxyethyl)lysine

> <FORMULA>
C9H18N2O4

> <MASS>
218.25020

> <MONOISOTOPIC_MASS>
218.12666

> <CHARGE>
0

> <SMILES>
NC(CCCCNCCC(O)=O)C(O)=O

> <INCHI>
InChI=1S/C9H18N2O4/c10-7(9(14)15)3-1-2-5-11-6-4-8(12)13/h7,11H,1-6,10H2,(H,12,13)(H,14,15)

> <INCHIKEY>
SPBWCBIQZFYDOE-UHFFFAOYSA-N

> <PUBMED_CITATION>
8672512

$$$$

Marvin  01191116372D          

 16 15  0  0  1  0            999 V2000
   13.0176   -4.9382    0.0000 C   0  0  0  0  0  0  0  0  0  0  0  0
   13.0176   -4.1132    0.0000 O   0  0  0  0  0  0  0  0  0  0  0  0
   12.3031   -5.3507    0.0000 C   0  0  1  0  0  0  0  0  0  0  0  0
   12.3031   -6.1756    0.0000 N   0  0  0  0  0  0  0  0  0  0  0  0
    9.4453   -5.3507    0.0000 C   0  0  0  0  0  0  0  0  0  0  0  0
   11.5886   -4.9382    0.0000 C   0  0  0  0  0  0  0  0  0  0  0  0
   10.1597   -4.9382    0.0000 C   0  0  0  0  0  0  0  0  0  0  0  0
   10.8742   -5.3507    0.0000 C   0  0  0  0  0  0  0  0  0  0  0  0
   13.7320   -5.3507    0.0000 O   0  0  0  0  0  0  0  0  0  0  0  0
    8.7310   -4.9382    0.0000 N   0  0  0  0  0  0  0  0  0  0  0  0
    8.0165   -6.1756    0.0000 O   0  0  0  0  0  0  0  0  0  0  0  0
    8.0165   -5.3507    0.0000 C   0  0  0  0  0  0  0  0  0  0  0  0
    7.3020   -4.9382    0.0000 C   0  0  0  0  0  0  0  0  0  0  0  0
    7.3020   -4.1132    0.0000 F   0  0  0  0  0  0  0  0  0  0  0  0
    6.5875   -5.3507    0.0000 F   0  0  0  0  0  0  0  0  0  0  0  0
    6.5875   -4.5257    0.0000 F   0  0  0  0  0  0  0  0  0  0  0  0
  1  2  2  0  0  0  0
  1  3  1  0  0  0  0
  3  4  1  1  0  0  0
  3  6  1  0  0  0  0
 10  5  1  0  0  0  0
  5  7  1  0  0  0  0
  6  8  1  0  0  0  0
  7  8  1  0  0  0  0
  9  1  1  0  0  0  0
 10 12  1  0  0  0  0
 12 11  2  0  0  0  0
 12 13  1  0  0  0  0
 13 14  1  0  0  0  0
 13 15  1  0  0  0  0
 13 16  1  0  0  0  0
M  END
> <ID>
CHEBI:61064

> <NAME>
N(6)-trifluoroacetyl-L-lysine

> <DEFINITION>
An N6-acyl-L-lysine where the N6-acyl group is trifluoroacetyl.

> <STAR>
3

> <SYNONYM>
N6-(Trifluoroacetyl)-L-lysine

> <IUPAC_NAME>
N(6)-(trifluoroacetyl)-L-lysine

> <FORMULA>
C8H13F3N2O3

> <MASS>
242.19560

> <MONOISOTOPIC_MASS>
242.08783

> <CHARGE>
0

> <SMILES>
N[C@@H](CCCCNC(=O)C(F)(F)F)C(O)=O

> <INCHI>
InChI=1S/C8H13F3N2O3/c9-8(10,11)7(16)13-4-2-1-3-5(12)6(14)15/h5H,1-4,12H2,(H,13,16)(H,14,15)/t5-/m0/s1

> <INCHIKEY>
PZZHRSVBHRVIMI-YFKPBYRVSA-N

> <CAS_REGISTRY_NUMBER>
10009-20-8

> <REAXYS_REGISTRY_NUMBER>
2122429

> <CHEMIDPLUS>
10009-20-8

> <PUBMED_CITATION>
11684365; 7519986; 7548757

$$$$

Marvin  02161109292D          

 32 33  0  0  1  0            999 V2000
   12.1365   -4.2546    0.0000 C   0  0  2  0  0  0  0  0  0  0  0  0
   12.1365   -5.0795    0.0000 C   0  0  1  0  0  0  0  0  0  0  0  0
   11.4220   -3.8422    0.0000 O   0  0  0  0  0  0  0  0  0  0  0  0
   11.4220   -5.4920    0.0000 C   0  0  2  0  0  0  0  0  0  0  0  0
   10.7076   -4.2546    0.0000 C   0  0  1  0  0  0  0  0  0  0  0  0
   10.7076   -5.0795    0.0000 C   0  0  1  0  0  0  0  0  0  0  0  0
   12.8509   -3.8421    0.0000 O   0  0  0  0  0  0  0  0  0  0  0  0
   12.8509   -5.4920    0.0000 O   0  0  0  0  0  0  0  0  0  0  0  0
   11.4220   -6.3170    0.0000 O   0  0  0  0  0  0  0  0  0  0  0  0
    9.9931   -5.4920    0.0000 N   0  0  0  0  0  0  0  0  0  0  0  0
    9.9931   -3.8422    0.0000 C   0  0  0  0  0  0  0  0  0  0  0  0
   13.5654   -5.0795    0.0000 C   0  0  0  0  0  0  0  0  0  0  0  0
    9.2756   -5.0795    0.0000 C   0  0  0  0  0  0  0  0  0  0  0  0
    7.8470   -5.0801    0.0000 C   0  0  0  0  0  0  0  0  0  0  0  0
    7.8470   -4.2975    0.0000 O   0  0  0  0  0  0  0  0  0  0  0  0
    7.2606   -5.7303    0.0000 C   0  0  0  0  0  0  0  0  0  0  0  0
    7.0519   -4.9039    0.0000 C   0  0  0  0  0  0  0  0  0  0  0  0
   13.5654   -4.2546    0.0000 C   0  0  0  0  0  0  0  0  0  0  0  0
   14.2798   -3.8421    0.0000 C   0  0  0  0  0  0  0  0  0  0  0  0
   14.9944   -4.2546    0.0000 N   0  0  0  0  0  0  0  0  0  0  0  0
    8.5615   -5.4926    0.0000 C   0  0  0  0  0  0  0  0  0  0  0  0
    9.2746   -4.2545    0.0000 O   0  0  0  0  0  0  0  0  0  0  0  0
   15.7088   -3.8421    0.0000 C   0  0  0  0  0  0  0  0  0  0  0  0
   15.7089   -3.0170    0.0000 O   0  0  0  0  0  0  0  0  0  0  0  0
   16.4234   -4.2545    0.0000 O   0  0  0  0  0  0  0  0  0  0  0  0
   17.1378   -3.8420    0.0000 C   0  0  0  0  0  0  0  0  0  0  0  0
   17.8523   -4.2545    0.0000 C   0  0  0  0  0  0  0  0  0  0  0  0
   19.2813   -4.2545    0.0000 C   0  0  0  0  0  0  0  0  0  0  0  0
   19.2813   -5.0795    0.0000 C   0  0  0  0  0  0  0  0  0  0  0  0
   18.5668   -3.8420    0.0000 C   0  0  0  0  0  0  0  0  0  0  0  0
   18.5668   -5.4920    0.0000 C   0  0  0  0  0  0  0  0  0  0  0  0
   17.8523   -5.0795    0.0000 C   0  0  0  0  0  0  0  0  0  0  0  0
  1  2  1  0  0  0  0
  1  3  1  0  0  0  0
  2  4  1  0  0  0  0
  3  5  1  0  0  0  0
  4  6  1  0  0  0  0
  5  6  1  0  0  0  0
  1  7  1  6  0  0  0
  2  8  1  6  0  0  0
  4  9  1  1  0  0  0
  6 10  1  6  0  0  0
  5 11  1  1  0  0  0
  8 12  1  0  0  0  0
 10 13  1  0  0  0  0
 14 15  1  0  0  0  0
 14 16  1  0  0  0  0
 14 17  1  0  0  0  0
  7 18  1  0  0  0  0
 18 19  1  0  0  0  0
 19 20  1  0  0  0  0
 13 21  1  0  0  0  0
 21 14  1  0  0  0  0
 13 22  2  0  0  0  0
 24 23  2  0  0  0  0
 25 23  1  0  0  0  0
 26 25  1  0  0  0  0
 20 23  1  0  0  0  0
 26 27  1  0  0  0  0
 29 28  1  0  0  0  0
 30 28  2  0  0  0  0
 31 29  2  0  0  0  0
 27 30  1  0  0  0  0
 32 31  1  0  0  0  0
 32 27  2  0  0  0  0
M  END
> <ID>
CHEBI:61065

> <NAME>
N-benzyloxycarbonylaminoethyl-4,6-dideoxy-4-(3-hydroxy-3-methylbutanamido)-2-O-methyl-beta-D-glucopyranoside

> <DEFINITION>
An aminoglycoside composed of glucose deoxygenated at C-4 and C-6 and having benzyloxycarbonyl (Z)-protected aminoethyl, methyl and 3-hydroxy-3-methylbutanamido substituents at positions 1, 2 and 4, respectively.

> <STAR>
3

> <SYNONYM>
N-benzyloxycarbonylaminoethyl-4,6-dideoxy-4-(3-hydroxy-3-methylbutanamido)-2-O-methyl-beta-D-glucoside

> <IUPAC_NAME>
benzyl [2-({4,6-dideoxy-4-[(3-hydroxy-3-methylbutanoyl)amino]-2-O-methyl-alpha-D-glucopyranosyl}oxy)ethyl]carbamate

> <FORMULA>
C22H34N2O8

> <MASS>
454.51400

> <MONOISOTOPIC_MASS>
454.23152

> <CHARGE>
0

> <SMILES>
CO[C@@H]1[C@@H](O)[C@H](NC(=O)CC(C)(C)O)[C@@H](C)O[C@@H]1OCCNC(=O)OCc1ccccc1

> <INCHI>
InChI=1S/C22H34N2O8/c1-14-17(24-16(25)12-22(2,3)28)18(26)19(29-4)20(32-14)30-11-10-23-21(27)31-13-15-8-6-5-7-9-15/h5-9,14,17-20,26,28H,10-13H2,1-4H3,(H,23,27)(H,24,25)/t14-,17-,18+,19-,20+/m1/s1

> <INCHIKEY>
XNRMJGHVUFTXMK-QSWMPLQWSA-N

> <PUBMED_CITATION>
18155682

$$$$

Marvin  02281109462D          

 49 52  0  0  1  0            999 V2000
   13.7768   -9.8184    0.0000 C   0  0  2  0  0  0  0  0  0  0  0  0
   13.7768  -10.6434    0.0000 C   0  0  1  0  0  0  0  0  0  0  0  0
   13.0622   -9.4060    0.0000 O   0  0  0  0  0  0  0  0  0  0  0  0
   13.0622  -11.0560    0.0000 C   0  0  2  0  0  0  0  0  0  0  0  0
   12.3477   -9.8184    0.0000 C   0  0  1  0  0  0  0  0  0  0  0  0
   12.3477  -10.6434    0.0000 C   0  0  1  0  0  0  0  0  0  0  0  0
   14.4912   -9.4059    0.0000 O   0  0  0  0  0  0  0  0  0  0  0  0
   14.4912  -11.0560    0.0000 O   0  0  0  0  0  0  0  0  0  0  0  0
   13.0622  -11.8810    0.0000 O   0  0  0  0  0  0  0  0  0  0  0  0
   11.6331  -11.0560    0.0000 N   0  0  0  0  0  0  0  0  0  0  0  0
   11.6331   -9.4060    0.0000 C   0  0  0  0  0  0  0  0  0  0  0  0
   15.2057  -10.6434    0.0000 C   0  0  0  0  0  0  0  0  0  0  0  0
   10.9156  -10.6434    0.0000 C   0  0  0  0  0  0  0  0  0  0  0  0
    9.4867  -10.6446    0.0000 C   0  0  0  0  0  0  0  0  0  0  0  0
   10.9156   -9.8184    0.0000 O   0  0  0  0  0  0  0  0  0  0  0  0
    9.4867   -9.8196    0.0000 O   0  0  0  0  0  0  0  0  0  0  0  0
    8.9002  -11.2311    0.0000 C   0  0  0  0  0  0  0  0  0  0  0  0
    8.6914  -10.4259    0.0000 C   0  0  0  0  0  0  0  0  0  0  0  0
   15.2057   -7.3434    0.0000 C   0  0  2  0  0  0  0  0  0  0  0  0
   15.2057   -8.1684    0.0000 C   0  0  1  0  0  0  0  0  0  0  0  0
   14.4912   -6.9309    0.0000 O   0  0  0  0  0  0  0  0  0  0  0  0
   14.4912   -8.5809    0.0000 C   0  0  1  0  0  0  0  0  0  0  0  0
   13.7768   -7.3434    0.0000 C   0  0  2  0  0  0  0  0  0  0  0  0
   13.7768   -8.1684    0.0000 C   0  0  2  0  0  0  0  0  0  0  0  0
   15.9202   -6.9308    0.0000 O   0  0  0  0  0  0  0  0  0  0  0  0
   15.9202   -8.5809    0.0000 O   0  0  0  0  0  0  0  0  0  0  0  0
   13.0623   -8.5808    0.0000 O   0  0  0  0  0  0  0  0  0  0  0  0
   13.0623   -6.9309    0.0000 C   0  0  0  0  0  0  0  0  0  0  0  0
   16.6348   -4.8683    0.0000 C   0  0  2  0  0  0  0  0  0  0  0  0
   16.6348   -5.6933    0.0000 C   0  0  1  0  0  0  0  0  0  0  0  0
   15.9202   -4.4558    0.0000 O   0  0  0  0  0  0  0  0  0  0  0  0
   15.9202   -6.1058    0.0000 C   0  0  1  0  0  0  0  0  0  0  0  0
   15.2058   -4.8683    0.0000 C   0  0  2  0  0  0  0  0  0  0  0  0
   15.2058   -5.6933    0.0000 C   0  0  2  0  0  0  0  0  0  0  0  0
   17.3492   -4.4558    0.0000 O   0  0  0  0  0  0  0  0  0  0  0  0
   17.3492   -6.1059    0.0000 O   0  0  0  0  0  0  0  0  0  0  0  0
   14.4913   -6.1058    0.0000 O   0  0  0  0  0  0  0  0  0  0  0  0
   14.4913   -4.4558    0.0000 C   0  0  0  0  0  0  0  0  0  0  0  0
   18.0637   -3.2183    0.0000 C   0  0  0  0  0  0  0  0  0  0  0  0
   18.0637   -4.0433    0.0000 C   0  0  1  0  0  0  0  0  0  0  0  0
   18.7781   -2.8058    0.0000 O   0  0  0  0  0  0  0  0  0  0  0  0
   18.7781   -4.4558    0.0000 C   0  0  1  0  0  0  0  0  0  0  0  0
   19.4926   -3.2183    0.0000 C   0  0  2  0  0  0  0  0  0  0  0  0
   19.4926   -4.0433    0.0000 C   0  0  2  0  0  0  0  0  0  0  0  0
   17.3492   -2.8058    0.0000 O   0  0  0  0  0  0  0  0  0  0  0  0
   18.7782   -5.2808    0.0000 O   0  0  0  0  0  0  0  0  0  0  0  0
   20.2071   -4.4558    0.0000 O   0  0  0  0  0  0  0  0  0  0  0  0
   20.2071   -2.8058    0.0000 C   0  0  0  0  0  0  0  0  0  0  0  0
   10.2015  -11.0565    0.0000 C   0  0  0  0  0  0  0  0  0  0  0  0
  1  2  1  0  0  0  0
  1  3  1  0  0  0  0
  2  4  1  0  0  0  0
  3  5  1  0  0  0  0
  4  6  1  0  0  0  0
  5  6  1  0  0  0  0
  1  7  1  6  0  0  0
  2  8  1  6  0  0  0
  4  9  1  1  0  0  0
  6 10  1  6  0  0  0
  5 11  1  1  0  0  0
  8 12  1  0  0  0  0
 10 13  1  0  0  0  0
 13 15  2  0  0  0  0
 14 16  1  0  0  0  0
 14 17  1  0  0  0  0
 14 18  1  0  0  0  0
 19 20  1  0  0  0  0
 19 21  1  0  0  0  0
 20 22  1  0  0  0  0
 21 23  1  0  0  0  0
 22 24  1  0  0  0  0
 23 24  1  0  0  0  0
 19 25  1  6  0  0  0
 20 26  1  6  0  0  0
 22  7  1  6  0  0  0
 24 27  1  1  0  0  0
 23 28  1  6  0  0  0
 29 30  1  0  0  0  0
 29 31  1  0  0  0  0
 30 32  1  0  0  0  0
 31 33  1  0  0  0  0
 32 34  1  0  0  0  0
 33 34  1  0  0  0  0
 29 35  1  6  0  0  0
 30 36  1  6  0  0  0
 32 25  1  6  0  0  0
 34 37  1  1  0  0  0
 33 38  1  6  0  0  0
 39 40  1  0  0  0  0
 39 41  1  0  0  0  0
 40 42  1  0  0  0  0
 41 43  1  0  0  0  0
 42 44  1  0  0  0  0
 43 44  1  0  0  0  0
 39 45  1  0  0  0  0
 40 35  1  1  0  0  0
 42 46  1  1  0  0  0
 44 47  1  6  0  0  0
 43 48  1  1  0  0  0
 13 49  1  0  0  0  0
 49 14  1  0  0  0  0
M  END
> <ID>
CHEBI:61069

> <NAME>
anthropyranosyl-(1->3)-Rhap-(1->3)-Rhap-(1->2)-Rhap

> <DEFINITION>
A linear amino tetrasaccharide comprising the unique bacterial sugar anthrose at the non-reducing end and three L-rhamnopyranose units joined by sequential (1→3)-, (1→3)- and (1→2)-linkages.

> <STAR>
3

> <SYNONYM>
anthrose tetrasaccharide; anthropyranosyl-(1->3)-Rha-(1->3)-Rha-(1->2)-Rha; anthropyranosyl-(1->3)-beta-rhamnopyranosyl-(1->3)-beta-rhamnnopyranosyl-(1->2)-L-rhamnopyranose; 4,6-dideoxy-4-[(3-hydroxy-3-methylbutanoyl)amino]-2-O-methyl-alpha-D-glucopyranosyl-(1->3)-6-deoxy-beta-L-mannopyranosyl-(1->3)-6-deoxy-beta-L-mannopyranosyl-(1->2)-6-deoxy-L-mannopyranose

> <IUPAC_NAME>
4,6-dideoxy-4-[(3-hydroxy-3-methylbutanoyl)amino]-2-O-methyl-alpha-D-glucopyranosyl-(1->3)-beta-L-rhamnopyranosyl-(1->3)-beta-L-rhamnopyranosyl-(1->2)-L-rhamnopyranose

> <FORMULA>
C30H53NO18

> <MASS>
715.73770

> <MONOISOTOPIC_MASS>
715.32626

> <CHARGE>
0

> <SMILES>
CO[C@@H]1[C@@H](O)[C@H](NC(=O)CC(C)(C)O)[C@@H](C)O[C@@H]1O[C@@H]1[C@@H](O)[C@H](C)O[C@H](O[C@@H]2[C@@H](O)[C@H](C)O[C@H](O[C@H]3C(O)O[C@@H](C)[C@H](O)[C@H]3O)[C@@H]2O)[C@@H]1O

> <INCHI>
InChI=1S/C30H53NO18/c1-9-14(31-13(32)8-30(5,6)41)18(36)25(42-7)29(44-9)48-23-17(35)12(4)45-27(21(23)39)47-22-16(34)11(3)46-28(20(22)38)49-24-19(37)15(33)10(2)43-26(24)40/h9-12,14-29,33-41H,8H2,1-7H3,(H,31,32)/t9-,10+,11+,12+,14-,15+,16+,17+,18+,19-,20-,21-,22-,23-,24-,25-,26?,27-,28-,29-/m1/s1

> <INCHIKEY>
NQWUIEBTVLOMCE-VKASMFIOSA-N

> <PUBMED_CITATION>
18155682

$$$$

Marvin  01201113232D          

 20 22  0  0  1  0            999 V2000
   11.7930   -4.3002    0.0000 C   0  0  0  0  0  0  0  0  0  0  0  0
   11.0784   -4.7127    0.0000 N   0  0  0  0  0  0  0  0  0  0  0  0
   11.7928   -5.9502    0.0000 N   0  0  0  0  0  0  0  0  0  0  0  0
   12.5074   -5.5377    0.0000 C   0  0  0  0  0  0  0  0  0  0  0  0
   12.5074   -4.7127    0.0000 C   0  0  0  0  0  0  0  0  0  0  0  0
   13.2919   -4.4579    0.0000 N   0  0  0  0  0  0  0  0  0  0  0  0
   13.7769   -5.1254    0.0000 C   0  0  0  0  0  0  0  0  0  0  0  0
   13.2919   -5.7927    0.0000 N   0  0  0  0  0  0  0  0  0  0  0  0
   13.5469   -6.5775    0.0000 C   0  0  2  0  0  0  0  0  0  0  0  0
   13.0619   -7.2449    0.0000 O   0  0  0  0  0  0  0  0  0  0  0  0
   13.5469   -7.9124    0.0000 C   0  0  2  0  0  0  0  0  0  0  0  0
   13.2919   -8.6971    0.0000 C   0  0  0  0  0  0  0  0  0  0  0  0
   13.8439   -9.3102    0.0000 O   0  0  0  0  0  0  0  0  0  0  0  0
   14.3314   -7.6574    0.0000 C   0  0  1  0  0  0  0  0  0  0  0  0
   14.9989   -8.1424    0.0000 O   0  0  0  0  0  0  0  0  0  0  0  0
   14.3316   -6.8324    0.0000 C   0  0  0  0  0  0  0  0  0  0  0  0
   11.0783   -5.5377    0.0000 C   0  0  0  0  0  0  0  0  0  0  0  0
   10.3639   -5.9502    0.0000 N   0  0  0  0  0  0  0  0  0  0  0  0
   11.7930   -3.4752    0.0000 O   0  0  0  0  0  0  0  0  0  0  0  0
   14.6019   -5.1254    0.0000 Cl  0  0  0  0  0  0  0  0  0  0  0  0
 19  1  2  0  0  0  0
  1  2  1  0  0  0  0
  1  5  1  0  0  0  0
  2 17  1  0  0  0  0
 17  3  2  0  0  0  0
  3  4  1  0  0  0  0
  4  5  2  0  0  0  0
  4  8  1  0  0  0  0
  5  6  1  0  0  0  0
  6  7  2  0  0  0  0
  7  8  1  0  0  0  0
  9  8  1  1  0  0  0
  9 10  1  0  0  0  0
  9 16  1  0  0  0  0
 10 11  1  0  0  0  0
 11 12  1  1  0  0  0
 11 14  1  0  0  0  0
 12 13  1  0  0  0  0
 14 15  1  6  0  0  0
 14 16  1  0  0  0  0
 17 18  1  0  0  0  0
  7 20  1  0  0  0  0
M  END
> <ID>
CHEBI:61070

> <NAME>
8-chloro-2'-deoxyguanosine

> <DEFINITION>
An organochlorine compound comprising 2'-deoxyguanosine having a chloro substituent at position 8 of the guanine ring system.

> <STAR>
3

> <SYNONYM>
8-Cl-2'-dG; 8-chloro-2'-dG

> <IUPAC_NAME>
8-chloro-2'-deoxyguanosine

> <FORMULA>
C10H12ClN5O4

> <MASS>
301.68600

> <MONOISOTOPIC_MASS>
301.05778

> <CHARGE>
0

> <SMILES>
Nc1nc2n([C@H]3C[C@H](O)[C@@H](CO)O3)c(Cl)nc2c(=O)[nH]1

> <INCHI>
InChI=1S/C10H12ClN5O4/c11-9-13-6-7(14-10(12)15-8(6)19)16(9)5-1-3(18)4(2-17)20-5/h3-5,17-18H,1-2H2,(H3,12,14,15,19)/t3-,4+,5+/m0/s1

> <INCHIKEY>
IMJGYHICYATNGZ-VPENINKCSA-N

> <REAXYS_REGISTRY_NUMBER>
10193533

> <PUBMED_CITATION>
20081197

$$$$

Marvin  01201113382D          

 20 22  0  0  1  0            999 V2000
   11.7930   -4.3002    0.0000 C   0  0  0  0  0  0  0  0  0  0  0  0
   11.0784   -4.7127    0.0000 N   0  0  0  0  0  0  0  0  0  0  0  0
   11.7928   -5.9502    0.0000 N   0  0  0  0  0  0  0  0  0  0  0  0
   12.5074   -5.5377    0.0000 C   0  0  0  0  0  0  0  0  0  0  0  0
   12.5074   -4.7127    0.0000 C   0  0  0  0  0  0  0  0  0  0  0  0
   13.2919   -4.4579    0.0000 N   0  0  0  0  0  0  0  0  0  0  0  0
   13.7769   -5.1254    0.0000 C   0  0  0  0  0  0  0  0  0  0  0  0
   13.2919   -5.7927    0.0000 N   0  0  0  0  0  0  0  0  0  0  0  0
   13.5469   -6.5775    0.0000 C   0  0  2  0  0  0  0  0  0  0  0  0
   13.0619   -7.2449    0.0000 O   0  0  0  0  0  0  0  0  0  0  0  0
   13.5469   -7.9124    0.0000 C   0  0  2  0  0  0  0  0  0  0  0  0
   13.2919   -8.6971    0.0000 C   0  0  0  0  0  0  0  0  0  0  0  0
   13.8439   -9.3102    0.0000 O   0  0  0  0  0  0  0  0  0  0  0  0
   14.3314   -7.6574    0.0000 C   0  0  1  0  0  0  0  0  0  0  0  0
   14.9989   -8.1424    0.0000 O   0  0  0  0  0  0  0  0  0  0  0  0
   14.3316   -6.8324    0.0000 C   0  0  0  0  0  0  0  0  0  0  0  0
   11.0783   -5.5377    0.0000 C   0  0  0  0  0  0  0  0  0  0  0  0
   10.3639   -5.9502    0.0000 N   0  0  0  0  0  0  0  0  0  0  0  0
   11.7930   -3.4752    0.0000 O   0  0  0  0  0  0  0  0  0  0  0  0
   14.6019   -5.1254    0.0000 Br  0  0  0  0  0  0  0  0  0  0  0  0
 19  1  2  0  0  0  0
  1  2  1  0  0  0  0
  1  5  1  0  0  0  0
  2 17  1  0  0  0  0
 17  3  2  0  0  0  0
  3  4  1  0  0  0  0
  4  5  2  0  0  0  0
  4  8  1  0  0  0  0
  5  6  1  0  0  0  0
  6  7  2  0  0  0  0
  7  8  1  0  0  0  0
  9  8  1  1  0  0  0
  9 10  1  0  0  0  0
  9 16  1  0  0  0  0
 10 11  1  0  0  0  0
 11 12  1  1  0  0  0
 11 14  1  0  0  0  0
 12 13  1  0  0  0  0
 14 15  1  6  0  0  0
 14 16  1  0  0  0  0
 17 18  1  0  0  0  0
  7 20  1  0  0  0  0
M  END
> <ID>
CHEBI:61072

> <NAME>
8-bromo-2'-deoxyguanosine

> <DEFINITION>
An organobromine compound comprising 2'-deoxyguanosine having a bromo substituent at position 8 of the guanine ring system.

> <STAR>
3

> <SYNONYM>
8-bromo-2'-dG; 8-Br-2'-dG

> <IUPAC_NAME>
8-bromo-2'-deoxyguanosine

> <FORMULA>
C10H12BrN5O4

> <MASS>
346.13700

> <MONOISOTOPIC_MASS>
345.00727

> <CHARGE>
0

> <SMILES>
Nc1nc2n([C@H]3C[C@H](O)[C@@H](CO)O3)c(Br)nc2c(=O)[nH]1

> <INCHI>
InChI=1S/C10H12BrN5O4/c11-9-13-6-7(14-10(12)15-8(6)19)16(9)5-1-3(18)4(2-17)20-5/h3-5,17-18H,1-2H2,(H3,12,14,15,19)/t3-,4+,5+/m0/s1

> <INCHIKEY>
MKDXZFVCXWXGBQ-VPENINKCSA-N

> <REAXYS_REGISTRY_NUMBER>
572239

> <PUBMED_CITATION>
10937723; 11393401; 15686914; 20081197; 3861870

$$$$

Marvin  01201116162D          

 26 28  0  0  0  0            999 V2000
    8.3375   -3.0265    0.0000 N   0  0  0  0  0  0  0  0  0  0  0  0
    9.0521   -2.6140    0.0000 C   0  0  0  0  0  0  0  0  0  0  0  0
    8.3375   -5.5015    0.0000 N   0  0  0  0  0  0  0  0  0  0  0  0
    8.3375   -3.8515    0.0000 C   0  0  0  0  0  0  0  0  0  0  0  0
    9.0521   -4.2640    0.0000 C   0  0  0  0  0  0  0  0  0  0  0  0
    7.6231   -4.2640    0.0000 C   0  0  0  0  0  0  0  0  0  0  0  0
    9.0521   -1.7890    0.0000 O   0  0  0  0  0  0  0  0  0  0  0  0
    7.6231   -2.6140    0.0000 C   0  0  0  0  0  0  0  0  0  0  0  0
    7.6231   -5.0890    0.0000 C   0  0  0  0  0  0  0  0  0  0  0  0
    9.0521   -5.0890    0.0000 C   0  0  0  0  0  0  0  0  0  0  0  0
    8.3375   -6.3265    0.0000 C   0  0  0  0  0  0  0  0  0  0  0  0
    9.0521   -6.7390    0.0000 C   0  0  0  0  0  0  0  0  0  0  0  0
    9.0521   -7.5640    0.0000 C   0  0  0  0  0  0  0  0  0  0  0  0
    9.7665   -3.0265    0.0000 C   0  0  0  0  0  0  0  0  0  0  0  0
    6.9086   -3.0265    0.0000 C   0  0  0  0  0  0  0  0  0  0  0  0
    7.6231   -1.7890    0.0000 C   0  0  0  0  0  0  0  0  0  0  0  0
    9.7665   -7.9765    0.0000 C   0  0  0  0  0  0  0  0  0  0  0  0
    8.3375   -7.9765    0.0000 C   0  0  0  0  0  0  0  0  0  0  0  0
    6.1941   -2.6140    0.0000 C   0  0  0  0  0  0  0  0  0  0  0  0
    6.9086   -1.3765    0.0000 C   0  0  0  0  0  0  0  0  0  0  0  0
    9.7665   -8.8015    0.0000 C   0  0  0  0  0  0  0  0  0  0  0  0
    8.3375   -8.8015    0.0000 C   0  0  0  0  0  0  0  0  0  0  0  0
    6.1941   -1.7890    0.0000 C   0  0  0  0  0  0  0  0  0  0  0  0
    9.0521   -9.2140    0.0000 C   0  0  0  0  0  0  0  0  0  0  0  0
   10.4810   -2.6140    0.0000 C   0  0  0  0  0  0  0  0  0  0  0  0
    5.4796   -1.3764    0.0000 F   0  0  0  0  0  0  0  0  0  0  0  0
  2  1  1  0  0  0  0
  4  1  1  0  0  0  0
  8  1  1  0  0  0  0
  7  2  2  0  0  0  0
 14  2  1  0  0  0  0
  9  3  1  0  0  0  0
 11  3  1  0  0  0  0
 10  3  1  0  0  0  0
  5  4  1  0  0  0  0
  6  4  1  0  0  0  0
 10  5  1  0  0  0  0
  9  6  1  0  0  0  0
 15  8  1  0  0  0  0
 16  8  2  0  0  0  0
 12 11  1  0  0  0  0
 13 12  1  0  0  0  0
 17 13  1  0  0  0  0
 18 13  2  0  0  0  0
 19 15  2  0  0  0  0
 20 16  1  0  0  0  0
 21 17  2  0  0  0  0
 22 18  1  0  0  0  0
 23 19  1  0  0  0  0
 23 20  2  0  0  0  0
 24 21  1  0  0  0  0
 24 22  2  0  0  0  0
 14 25  1  0  0  0  0
 23 26  1  0  0  0  0
M  END
> <ID>
CHEBI:61074

> <NAME>
4-fluorofentanyl

> <DEFINITION>
The monocarboxylic acid amide resulting from the formal condensation of the aryl amino group of N-(4-fluorophenyl)-1-(2-phenylethyl)piperidin-4-amine with propanoic acid.

> <STAR>
3

> <SYNONYM>
p-fluorofentanyl; N-(4-Fluorophenyl)-N-(1-(2-phenylethyl)-4-piperidinyl)propanamide

> <IUPAC_NAME>
N-(4-fluorophenyl)-N-[1-(2-phenylethyl)piperidin-4-yl]propanamide

> <FORMULA>
C22H27FN2O

> <MASS>
354.46100

> <MONOISOTOPIC_MASS>
354.21074

> <CHARGE>
0

> <SMILES>
CCC(=O)N(C1CCN(CC1)CCc1ccccc1)c1ccc(F)cc1

> <INCHI>
InChI=1S/C22H27FN2O/c1-2-22(26)25(20-10-8-19(23)9-11-20)21-13-16-24(17-14-21)15-12-18-6-4-3-5-7-18/h3-11,21H,2,12-17H2,1H3

> <INCHIKEY>
KXUBAVLIJFTASZ-UHFFFAOYSA-N

> <CAS_REGISTRY_NUMBER>
90736-23-5

> <REAXYS_REGISTRY_NUMBER>
4713884

> <CHEMIDPLUS>
90736-23-5

> <PUBMED_CITATION>
10945855; 16621415

$$$$

Marvin  01241110582D          

 42 44  0  0  1  0            999 V2000
    7.9998  -13.1007    0.0000 C   0  0  2  0  0  0  0  0  0  0  0  0
    7.9998  -13.9258    0.0000 C   0  0  1  0  0  0  0  0  0  0  0  0
    7.2853  -12.6882    0.0000 O   0  0  0  0  0  0  0  0  0  0  0  0
    7.2853  -14.3383    0.0000 C   0  0  2  0  0  0  0  0  0  0  0  0
    6.5708  -13.1007    0.0000 C   0  0  1  0  0  0  0  0  0  0  0  0
    6.5708  -13.9258    0.0000 C   0  0  1  0  0  0  0  0  0  0  0  0
    8.7142  -12.6882    0.0000 O   0  0  0  0  0  0  0  0  0  0  0  0
    8.7142  -14.3383    0.0000 O   0  0  0  0  0  0  0  0  0  0  0  0
    7.2852  -15.1633    0.0000 O   0  0  0  0  0  0  0  0  0  0  0  0
    5.8564  -14.3383    0.0000 O   0  0  0  0  0  0  0  0  0  0  0  0
    5.8564  -12.6882    0.0000 C   0  0  0  0  0  0  0  0  0  0  0  0
    5.1418  -13.1007    0.0000 O   0  0  0  0  0  0  0  0  0  0  0  0
    9.4288  -10.6257    0.0000 C   0  0  2  0  0  0  0  0  0  0  0  0
    9.4288  -11.4507    0.0000 C   0  0  1  0  0  0  0  0  0  0  0  0
    8.7143  -10.2132    0.0000 O   0  0  0  0  0  0  0  0  0  0  0  0
    8.7143  -11.8632    0.0000 C   0  0  2  0  0  0  0  0  0  0  0  0
    7.9998  -10.6257    0.0000 C   0  0  1  0  0  0  0  0  0  0  0  0
    7.9998  -11.4507    0.0000 C   0  0  1  0  0  0  0  0  0  0  0  0
   10.1433  -10.2132    0.0000 O   0  0  0  0  0  0  0  0  0  0  0  0
   10.1433  -11.8632    0.0000 O   0  0  0  0  0  0  0  0  0  0  0  0
    7.2854  -11.8632    0.0000 O   0  0  0  0  0  0  0  0  0  0  0  0
    7.2854  -10.2132    0.0000 C   0  0  0  0  0  0  0  0  0  0  0  0
    6.5709  -10.6257    0.0000 O   0  0  0  0  0  0  0  0  0  0  0  0
   10.8578   -8.1506    0.0000 C   0  0  1  0  0  0  0  0  0  0  0  0
   10.8578   -8.9756    0.0000 C   0  0  1  0  0  0  0  0  0  0  0  0
   10.1433   -7.7381    0.0000 O   0  0  0  0  0  0  0  0  0  0  0  0
   10.1433   -9.3882    0.0000 C   0  0  1  0  0  0  0  0  0  0  0  0
    9.4288   -8.1506    0.0000 C   0  0  2  0  0  0  0  0  0  0  0  0
    9.4288   -8.9756    0.0000 C   0  0  2  0  0  0  0  0  0  0  0  0
   11.5723   -7.7381    0.0000 O   0  0  0  0  0  0  0  0  0  0  0  0
   11.5723   -9.3882    0.0000 O   0  0  0  0  0  0  0  0  0  0  0  0
    8.7144   -9.3882    0.0000 O   0  0  0  0  0  0  0  0  0  0  0  0
    8.7144   -7.7381    0.0000 C   0  0  0  0  0  0  0  0  0  0  0  0
    9.4152   -6.5043    0.0000 O   0  0  0  0  0  0  0  0  0  0  0  0
   10.1362   -6.9144    0.0000 C   0  0  0  0  0  0  0  0  0  0  0  0
   10.8571   -6.5043    0.0000 C   0  0  2  0  0  0  0  0  0  0  0  0
   11.5723   -6.9144    0.0000 C   0  0  2  0  0  0  0  0  0  0  0  0
   12.2875   -6.5043    0.0000 C   0  0  2  0  0  0  0  0  0  0  0  0
   13.0084   -6.9144    0.0000 C   0  0  0  0  0  0  0  0  0  0  0  0
   13.7294   -6.5043    0.0000 O   0  0  0  0  0  0  0  0  0  0  0  0
   10.8567   -5.6806    0.0000 O   0  0  0  0  0  0  0  0  0  0  0  0
   12.2880   -5.6806    0.0000 O   0  0  0  0  0  0  0  0  0  0  0  0
  1  2  1  0  0  0  0
  1  3  1  0  0  0  0
  2  4  1  0  0  0  0
  3  5  1  0  0  0  0
  4  6  1  0  0  0  0
  5  6  1  0  0  0  0
  1  7  1  6  0  0  0
  2  8  1  6  0  0  0
  4  9  1  1  0  0  0
  6 10  1  6  0  0  0
  5 11  1  1  0  0  0
 12 11  1  0  0  0  0
 13 14  1  0  0  0  0
 13 15  1  0  0  0  0
 14 16  1  0  0  0  0
 15 17  1  0  0  0  0
 16 18  1  0  0  0  0
 17 18  1  0  0  0  0
 13 19  1  6  0  0  0
 14 20  1  6  0  0  0
 16  7  1  1  0  0  0
 18 21  1  6  0  0  0
 17 22  1  1  0  0  0
 23 22  1  0  0  0  0
 24 25  1  0  0  0  0
 24 26  1  0  0  0  0
 25 27  1  0  0  0  0
 26 28  1  0  0  0  0
 27 29  1  0  0  0  0
 28 29  1  0  0  0  0
 24 30  1  1  0  0  0
 25 31  1  6  0  0  0
 27 19  1  6  0  0  0
 29 32  1  1  0  0  0
 28 33  1  6  0  0  0
 34 35  1  0  0  0  0
 35 36  1  0  0  0  0
 36 37  1  0  0  0  0
 37 38  1  0  0  0  0
 38 39  1  0  0  0  0
 39 40  1  0  0  0  0
 36 41  1  1  0  0  0
 37 30  1  6  0  0  0
 38 42  1  1  0  0  0
M  END
> <ID>
CHEBI:61086

> <NAME>
alpha-D-Glcp-(1->3)-alpha-D-Glcp-(1->3)-alpha-L-Rhap-(1->3)-D-ribitol

> <DEFINITION>
A glycoside consisting of D-ribitol having a α-D-glucosyl-(1→3)-α-D-glucosyl-(1→3)-α-L-rhamnosyl moiety attached at the 3-position.

> <STAR>
3

> <SYNONYM>
alpha-D-glucosyl-(1->3)-alpha-D-glucosyl-(1->3)-alpha-L-rhamnosyl-(1->3)-D-ribitol; alpha-D-glucopyranosyl-(1->3)-alpha-D-glucopyranosyl-(1->3)-6-deoxy-alpha-L-mannopyranosyl-(1->3)-D-ribitol; alpha-D-Glc-(1->3)-alpha-D-Glc-(1->3)-alpha-L-Rha-(1->3)-D-ribitol

> <IUPAC_NAME>
alpha-D-glucopyranosyl-(1->3)-alpha-D-glucopyranosyl-(1->3)-alpha-L-rhamnopyranosyl-(1->3)-D-ribitol

> <FORMULA>
C23H42O19

> <MASS>
622.56820

> <MONOISOTOPIC_MASS>
622.23203

> <CHARGE>
0

> <SMILES>
C[C@@H]1O[C@@H](O[C@@H]([C@@H](O)CO)[C@H](O)CO)[C@H](O)[C@H](O[C@H]2O[C@H](CO)[C@@H](O)[C@H](O[C@H]3O[C@H](CO)[C@@H](O)[C@H](O)[C@H]3O)[C@H]2O)[C@H]1O

> <INCHI>
InChI=1S/C23H42O19/c1-6-11(30)19(16(35)22(37-6)40-18(7(28)2-24)8(29)3-25)41-23-17(36)20(13(32)10(5-27)39-23)42-21-15(34)14(33)12(31)9(4-26)38-21/h6-36H,2-5H2,1H3/t6-,7-,8+,9+,10+,11-,12+,13+,14-,15+,16+,17+,18-,19+,20-,21+,22-,23+/m0/s1

> <INCHIKEY>
UIUWNJUZYVYFPZ-YQWLQOSYSA-N

> <PUBMED_CITATION>
19856369

$$$$

Marvin  01241113522D          

 26 28  0  0  0  0            999 V2000
   11.8065   -3.5334    0.0000 N   0  0  0  0  0  0  0  0  0  0  0  0
   12.5211   -3.1209    0.0000 C   0  0  0  0  0  0  0  0  0  0  0  0
   11.8065   -6.0084    0.0000 N   0  0  0  0  0  0  0  0  0  0  0  0
   11.8065   -4.3584    0.0000 C   0  0  0  0  0  0  0  0  0  0  0  0
   12.5211   -4.7709    0.0000 C   0  0  0  0  0  0  0  0  0  0  0  0
   11.0921   -4.7709    0.0000 C   0  0  0  0  0  0  0  0  0  0  0  0
   12.5211   -2.2959    0.0000 O   0  0  0  0  0  0  0  0  0  0  0  0
   11.0921   -3.1209    0.0000 C   0  0  0  0  0  0  0  0  0  0  0  0
   11.0921   -5.5959    0.0000 C   0  0  0  0  0  0  0  0  0  0  0  0
   12.5211   -5.5959    0.0000 C   0  0  0  0  0  0  0  0  0  0  0  0
   11.8065   -6.8334    0.0000 C   0  0  0  0  0  0  0  0  0  0  0  0
   12.5211   -7.2459    0.0000 C   0  0  0  0  0  0  0  0  0  0  0  0
   12.5211   -8.0709    0.0000 C   0  0  0  0  0  0  0  0  0  0  0  0
   13.2355   -3.5334    0.0000 C   0  0  0  0  0  0  0  0  0  0  0  0
   10.3776   -3.5334    0.0000 C   0  0  0  0  0  0  0  0  0  0  0  0
   11.0921   -2.2959    0.0000 C   0  0  0  0  0  0  0  0  0  0  0  0
   13.2355   -8.4834    0.0000 C   0  0  0  0  0  0  0  0  0  0  0  0
   11.8065   -8.4834    0.0000 C   0  0  0  0  0  0  0  0  0  0  0  0
    9.6631   -3.1209    0.0000 C   0  0  0  0  0  0  0  0  0  0  0  0
   10.3776   -1.8834    0.0000 C   0  0  0  0  0  0  0  0  0  0  0  0
   13.2355   -9.3084    0.0000 C   0  0  0  0  0  0  0  0  0  0  0  0
   11.8065   -9.3084    0.0000 C   0  0  0  0  0  0  0  0  0  0  0  0
    9.6631   -2.2959    0.0000 C   0  0  0  0  0  0  0  0  0  0  0  0
   12.5211   -9.7209    0.0000 C   0  0  0  0  0  0  0  0  0  0  0  0
   13.9500   -3.1209    0.0000 C   0  0  0  0  0  0  0  0  0  0  0  0
   13.2355   -4.3584    0.0000 C   0  0  0  0  0  0  0  0  0  0  0  0
  2  1  1  0  0  0  0
  4  1  1  0  0  0  0
  8  1  1  0  0  0  0
  7  2  2  0  0  0  0
 14  2  1  0  0  0  0
  9  3  1  0  0  0  0
 11  3  1  0  0  0  0
 10  3  1  0  0  0  0
  5  4  1  0  0  0  0
  6  4  1  0  0  0  0
 10  5  1  0  0  0  0
  9  6  1  0  0  0  0
 15  8  1  0  0  0  0
 16  8  2  0  0  0  0
 12 11  1  0  0  0  0
 13 12  1  0  0  0  0
 17 13  1  0  0  0  0
 18 13  2  0  0  0  0
 19 15  2  0  0  0  0
 20 16  1  0  0  0  0
 21 17  2  0  0  0  0
 22 18  1  0  0  0  0
 23 19  1  0  0  0  0
 23 20  2  0  0  0  0
 24 21  1  0  0  0  0
 24 22  2  0  0  0  0
 14 25  1  0  0  0  0
  5 26  1  0  0  0  0
M  END
> <ID>
CHEBI:61092

> <NAME>
3-methylfentanyl

> <DEFINITION>
The monocarboxylic acid amide resulting from the formal condensation of the aryl amino group of 3-methyl-N-phenyl-1-(2-phenylethyl)piperidin-4-amine with propanoic acid.

> <STAR>
3

> <SYNONYM>
N-(3-Methyl-1-(2-phenylethyl)-4-piperidinyl)-N-phenylpropanamide; mefentanyl; alpha-methylfentanyl; 3-MF

> <IUPAC_NAME>
N-[3-methyl-1-(2-phenylethyl)piperidin-4-yl]-N-phenylpropanamide

> <FORMULA>
C23H30N2O

> <MASS>
350.49710

> <MONOISOTOPIC_MASS>
350.23581

> <CHARGE>
0

> <SMILES>
CCC(=O)N(C1CCN(CCc2ccccc2)CC1C)c1ccccc1

> <INCHI>
InChI=1S/C23H30N2O/c1-3-23(26)25(21-12-8-5-9-13-21)22-15-17-24(18-19(22)2)16-14-20-10-6-4-7-11-20/h4-13,19,22H,3,14-18H2,1-2H3

> <INCHIKEY>
MLQRZXNZHAOCHQ-UHFFFAOYSA-N

> <CAS_REGISTRY_NUMBER>
42045-86-3

> <REAXYS_REGISTRY_NUMBER>
495141

> <CHEMIDPLUS>
42045-86-3

> <DRUGBANK_ACCESSION>
DB01571

> <NIST_CHEMISTRY_WEBBOOK>
42045-86-3

> <PUBMED_CITATION>
16621415; 4712637

$$$$

Marvin  01241115332D          

 24 26  0  0  0  0            999 V2000
    9.7414   -3.5792    0.0000 C   0  0  0  0  0  0  0  0  0  0  0  0
    9.7413   -2.7676    0.0000 O   0  0  0  0  0  0  0  0  0  0  0  0
   10.4188   -4.0258    0.0000 C   0  0  0  0  0  0  0  0  0  0  0  0
   11.1452   -3.6347    0.0000 C   0  0  0  0  0  0  0  0  0  0  0  0
    8.9904   -3.9835    0.0000 N   0  0  0  0  0  0  0  0  0  0  0  0
    8.9904   -6.4585    0.0000 N   0  0  0  0  0  0  0  0  0  0  0  0
    8.9904   -4.8085    0.0000 C   0  0  0  0  0  0  0  0  0  0  0  0
    9.7049   -5.2210    0.0000 C   0  0  0  0  0  0  0  0  0  0  0  0
    8.2760   -5.2210    0.0000 C   0  0  0  0  0  0  0  0  0  0  0  0
    8.2885   -3.5501    0.0000 C   0  0  0  0  0  0  0  0  0  0  0  0
    8.2760   -6.0460    0.0000 C   0  0  0  0  0  0  0  0  0  0  0  0
    9.7049   -6.0460    0.0000 C   0  0  0  0  0  0  0  0  0  0  0  0
    8.9904   -7.2835    0.0000 C   0  0  0  0  0  0  0  0  0  0  0  0
    9.7049   -7.6960    0.0000 C   0  0  0  0  0  0  0  0  0  0  0  0
    9.7049   -8.5210    0.0000 C   0  0  0  0  0  0  0  0  0  0  0  0
    7.5621   -3.9412    0.0000 C   0  0  0  0  0  0  0  0  0  0  0  0
    8.3130   -2.7255    0.0000 C   0  0  0  0  0  0  0  0  0  0  0  0
    6.8602   -3.5077    0.0000 C   0  0  0  0  0  0  0  0  0  0  0  0
    7.6110   -2.2919    0.0000 C   0  0  0  0  0  0  0  0  0  0  0  0
    6.8846   -2.6832    0.0000 C   0  0  0  0  0  0  0  0  0  0  0  0
   10.3722   -9.0059    0.0000 S   0  0  0  0  0  0  0  0  0  0  0  0
   10.1173   -9.7905    0.0000 C   0  0  0  0  0  0  0  0  0  0  0  0
    9.0375   -9.0060    0.0000 C   0  0  0  0  0  0  0  0  0  0  0  0
    9.2923   -9.7905    0.0000 C   0  0  0  0  0  0  0  0  0  0  0  0
  2  1  2  0  0  0  0
  3  1  1  0  0  0  0
  3  4  1  0  0  0  0
 10  5  1  0  0  0  0
 11  6  1  0  0  0  0
 13  6  1  0  0  0  0
 12  6  1  0  0  0  0
  8  7  1  0  0  0  0
  9  7  1  0  0  0  0
 12  8  1  0  0  0  0
 11  9  1  0  0  0  0
 16 10  2  0  0  0  0
 17 10  1  0  0  0  0
 14 13  1  0  0  0  0
 15 14  1  0  0  0  0
 18 16  1  0  0  0  0
 19 17  2  0  0  0  0
 20 18  2  0  0  0  0
 20 19  1  0  0  0  0
 21 15  1  0  0  0  0
 23 15  2  0  0  0  0
 22 21  1  0  0  0  0
 24 22  2  0  0  0  0
 24 23  1  0  0  0  0
  1  5  1  0  0  0  0
  5  7  1  0  0  0  0
M  END
> <ID>
CHEBI:61099

> <NAME>
thienylfentanyl

> <DEFINITION>
An anilide resulting from the formal condensation of the aryl amino group of N-phenyl-1-[2-(2-thienyl)ethyl]piperidin-4-amine with propanoic acid.

> <STAR>
3

> <SYNONYM>
Thiofentanyl; thienylfentanil; N-Phenyl-N-(1-((2-thienyl)ethyl)-4-piperidinyl)propanamide; N-(1-(beta-(2-Thienyl)ethyl)-4-piperidyl)propioanilide

> <IUPAC_NAME>
N-phenyl-N-{1-[2-(2-thienyl)ethyl]piperidin-4-yl}propanamide

> <FORMULA>
C20H26N2OS

> <MASS>
342.49800

> <MONOISOTOPIC_MASS>
342.17658

> <CHARGE>
0

> <SMILES>
CCC(=O)N(C1CCN(CC1)CCc1cccs1)c1ccccc1

> <INCHI>
InChI=1S/C20H26N2OS/c1-2-20(23)22(17-7-4-3-5-8-17)18-10-13-21(14-11-18)15-12-19-9-6-16-24-19/h3-9,16,18H,2,10-15H2,1H3

> <INCHIKEY>
YMRFZDHYDKZXPA-UHFFFAOYSA-N

> <CAS_REGISTRY_NUMBER>
1165-22-6

> <REAXYS_REGISTRY_NUMBER>
495808

> <CHEMIDPLUS>
1165-22-6

> <PUBMED_CITATION>
16621415; 6131992

$$$$

Marvin  01241116062D          

 18 19  0  0  0  0            999 V2000
   10.2459   -3.6726    0.0000 N   0  0  0  0  0  0  0  0  0  0  0  0
   10.9605   -3.2601    0.0000 C   0  0  0  0  0  0  0  0  0  0  0  0
   10.2459   -6.1476    0.0000 N   0  0  0  0  0  0  0  0  0  0  0  0
   10.2459   -4.4976    0.0000 C   0  0  0  0  0  0  0  0  0  0  0  0
   10.9605   -4.9101    0.0000 C   0  0  0  0  0  0  0  0  0  0  0  0
    9.5315   -4.9101    0.0000 C   0  0  0  0  0  0  0  0  0  0  0  0
   10.9605   -2.4351    0.0000 O   0  0  0  0  0  0  0  0  0  0  0  0
    9.5315   -3.2601    0.0000 C   0  0  0  0  0  0  0  0  0  0  0  0
    9.5315   -5.7351    0.0000 C   0  0  0  0  0  0  0  0  0  0  0  0
   10.9605   -5.7351    0.0000 C   0  0  0  0  0  0  0  0  0  0  0  0
   10.2459   -6.9726    0.0000 C   0  0  0  0  0  0  0  0  0  0  0  0
   11.6749   -3.6726    0.0000 C   0  0  0  0  0  0  0  0  0  0  0  0
    8.8170   -3.6726    0.0000 C   0  0  0  0  0  0  0  0  0  0  0  0
    9.5315   -2.4351    0.0000 C   0  0  0  0  0  0  0  0  0  0  0  0
    8.1026   -3.2601    0.0000 C   0  0  0  0  0  0  0  0  0  0  0  0
    8.8170   -2.0226    0.0000 C   0  0  0  0  0  0  0  0  0  0  0  0
    8.1026   -2.4351    0.0000 C   0  0  0  0  0  0  0  0  0  0  0  0
   12.3895   -3.2601    0.0000 C   0  0  0  0  0  0  0  0  0  0  0  0
  2  1  1  0  0  0  0
  4  1  1  0  0  0  0
  8  1  1  0  0  0  0
  7  2  2  0  0  0  0
 12  2  1  0  0  0  0
  9  3  1  0  0  0  0
 11  3  1  0  0  0  0
 10  3  1  0  0  0  0
  5  4  1  0  0  0  0
  6  4  1  0  0  0  0
 10  5  1  0  0  0  0
  9  6  1  0  0  0  0
 13  8  1  0  0  0  0
 14  8  2  0  0  0  0
 15 13  2  0  0  0  0
 16 14  1  0  0  0  0
 17 15  1  0  0  0  0
 17 16  2  0  0  0  0
 12 18  1  0  0  0  0
M  END
> <ID>
CHEBI:61102

> <NAME>
N-methylfentanyl

> <DEFINITION>
The monocarboxylic acid amide resulting from the formal condensation of the aryl amino group of 1-methyl-N-phenylpiperidin-4-amine with propanoic acid.

> <STAR>
3

> <SYNONYM>
N-methylfentanil

> <IUPAC_NAME>
N-(1-methylpiperidin-4-yl)-N-phenylpropanamide

> <FORMULA>
C15H22N2O

> <MASS>
246.34800

> <MONOISOTOPIC_MASS>
246.17321

> <CHARGE>
0

> <SMILES>
CCC(=O)N(C1CCN(C)CC1)c1ccccc1

> <INCHI>
InChI=1S/C15H22N2O/c1-3-15(18)17(13-7-5-4-6-8-13)14-9-11-16(2)12-10-14/h4-8,14H,3,9-12H2,1-2H3

> <INCHIKEY>
PCMUWYHREXSXFM-UHFFFAOYSA-N

> <REAXYS_REGISTRY_NUMBER>
482708

> <PUBMED_CITATION>
16621415; 4390066

$$$$

Marvin  02181110162D          

 46 48  0  0  1  0            999 V2000
   15.8124  -25.7937    0.0000 C   0  0  2  0  0  0  0  0  0  0  0  0
   15.8124  -26.6187    0.0000 C   0  0  1  0  0  0  0  0  0  0  0  0
   15.0979  -25.3812    0.0000 O   0  0  0  0  0  0  0  0  0  0  0  0
   15.0979  -27.0312    0.0000 C   0  0  2  0  0  0  0  0  0  0  0  0
   14.3834  -25.7937    0.0000 C   0  0  1  0  0  0  0  0  0  0  0  0
   14.3834  -26.6187    0.0000 C   0  0  2  0  0  0  0  0  0  0  0  0
   16.5269  -25.3812    0.0000 O   0  0  0  0  0  0  0  0  0  0  0  0
   16.5269  -27.0312    0.0000 O   0  0  0  0  0  0  0  0  0  0  0  0
   15.0979  -27.8562    0.0000 O   0  0  0  0  0  0  0  0  0  0  0  0
   13.6689  -27.0312    0.0000 O   0  0  0  0  0  0  0  0  0  0  0  0
   13.6689  -25.3812    0.0000 C   0  0  0  0  0  0  0  0  0  0  0  0
   12.9545  -25.7937    0.0000 O   0  0  0  0  0  0  0  0  0  0  0  0
   17.2414  -23.3187    0.0000 C   0  0  2  0  0  0  0  0  0  0  0  0
   17.2414  -24.1437    0.0000 C   0  0  1  0  0  0  0  0  0  0  0  0
   16.5269  -22.9062    0.0000 O   0  0  0  0  0  0  0  0  0  0  0  0
   16.5269  -24.5562    0.0000 C   0  0  2  0  0  0  0  0  0  0  0  0
   15.8124  -23.3187    0.0000 C   0  0  1  0  0  0  0  0  0  0  0  0
   15.8124  -24.1437    0.0000 C   0  0  1  0  0  0  0  0  0  0  0  0
   17.9558  -22.9062    0.0000 O   0  0  0  0  0  0  0  0  0  0  0  0
   17.9558  -24.5562    0.0000 O   0  0  0  0  0  0  0  0  0  0  0  0
   15.0979  -24.5562    0.0000 O   0  0  0  0  0  0  0  0  0  0  0  0
   15.0979  -22.9062    0.0000 C   0  0  0  0  0  0  0  0  0  0  0  0
   14.3835  -23.3187    0.0000 O   0  0  0  0  0  0  0  0  0  0  0  0
   18.6704  -20.8437    0.0000 C   0  0  1  0  0  0  0  0  0  0  0  0
   18.6704  -21.6687    0.0000 C   0  0  1  0  0  0  0  0  0  0  0  0
   17.9558  -20.4312    0.0000 O   0  0  0  0  0  0  0  0  0  0  0  0
   17.9558  -22.0812    0.0000 C   0  0  1  0  0  0  0  0  0  0  0  0
   17.2414  -20.8437    0.0000 C   0  0  2  0  0  0  0  0  0  0  0  0
   17.2414  -21.6687    0.0000 C   0  0  2  0  0  0  0  0  0  0  0  0
   19.3848  -22.0812    0.0000 O   0  0  0  0  0  0  0  0  0  0  0  0
   16.5269  -22.0812    0.0000 O   0  0  0  0  0  0  0  0  0  0  0  0
   16.5269  -20.4312    0.0000 C   0  0  0  0  0  0  0  0  0  0  0  0
   18.6693  -18.3724    0.0000 O   0  0  0  0  0  0  0  0  0  0  0  0
   17.2279  -19.1961    0.0000 O   0  0  0  0  0  0  0  0  0  0  0  0
   17.9489  -19.6062    0.0000 C   0  0  0  0  0  0  0  0  0  0  0  0
   18.6697  -19.1961    0.0000 C   0  0  2  0  0  0  0  0  0  0  0  0
   19.3849  -19.6062    0.0000 C   0  0  2  0  0  0  0  0  0  0  0  0
   20.1001  -19.1961    0.0000 C   0  0  2  0  0  0  0  0  0  0  0  0
   20.8210  -19.6062    0.0000 C   0  0  0  0  0  0  0  0  0  0  0  0
   21.5420  -19.1961    0.0000 O   0  0  0  0  0  0  0  0  0  0  0  0
   20.1006  -18.3724    0.0000 O   0  0  0  0  0  0  0  0  0  0  0  0
   19.3849  -20.4312    0.0000 O   0  0  0  0  0  0  0  0  0  0  0  0
   17.2279  -18.3711    0.0000 P   0  0  0  0  0  0  0  0  0  0  0  0
   16.5134  -17.9586    0.0000 O   0  0  0  0  0  0  0  0  0  0  0  0
   17.9423  -17.9586    0.0000 O   0  0  0  0  0  0  0  0  0  0  0  0
   16.5134  -18.7836    0.0000 O   0  0  0  0  0  0  0  0  0  0  0  0
  1  2  1  0  0  0  0
  1  3  1  0  0  0  0
  2  4  1  0  0  0  0
  3  5  1  0  0  0  0
  4  6  1  0  0  0  0
  5  6  1  0  0  0  0
  1  7  1  6  0  0  0
  2  8  1  6  0  0  0
  4  9  1  1  0  0  0
  6 10  1  1  0  0  0
  5 11  1  1  0  0  0
 12 11  1  0  0  0  0
 13 14  1  0  0  0  0
 13 15  1  0  0  0  0
 14 16  1  0  0  0  0
 15 17  1  0  0  0  0
 16 18  1  0  0  0  0
 17 18  1  0  0  0  0
 13 19  1  6  0  0  0
 14 20  1  6  0  0  0
 16  7  1  1  0  0  0
 18 21  1  6  0  0  0
 17 22  1  1  0  0  0
 23 22  1  0  0  0  0
 24 25  1  0  0  0  0
 24 26  1  0  0  0  0
 25 27  1  0  0  0  0
 26 28  1  0  0  0  0
 27 29  1  0  0  0  0
 28 29  1  0  0  0  0
 25 30  1  6  0  0  0
 27 19  1  6  0  0  0
 29 31  1  1  0  0  0
 28 32  1  6  0  0  0
 34 35  1  0  0  0  0
 35 36  1  0  0  0  0
 36 37  1  0  0  0  0
 37 38  1  0  0  0  0
 38 39  1  0  0  0  0
 39 40  1  0  0  0  0
 36 33  1  1  0  0  0
 38 41  1  1  0  0  0
 37 42  1  6  0  0  0
 24 42  1  1  0  0  0
 34 43  1  0  0  0  0
 43 44  1  0  0  0  0
 43 45  2  0  0  0  0
 43 46  1  0  0  0  0
M  END
> <ID>
CHEBI:61104

> <NAME>
alpha-D-Galp-(1->3)-alpha-D-Glcp-(1->3)-alpha-L-Rhap-(1->3)-D-ribitol-5-phosphate

> <DEFINITION>
A tetrasaccharide derivative comprising α-D-Galp-(1→3)-α-D-Glcp-(1→3)-α-L-Rhap-(1→3)-D-ribitol phosphorylated at position 5 of ribitol.

> <STAR>
3

> <SYNONYM>
alpha-D-galactosyl-(1->3)-alpha-D-glucosyl-(1->3)-alpha-L-rhamnosyl-(1->3)-5-O-phosphono-D-ribitol; alpha-D-galactopyranosyl-(1->3)-alpha-D-glucopyranosyl-(1->3)-6-deoxy-alpha-L-mannopyranosyl-(1->3)-5-O-phosphono-D-ribitol; alpha-D-Gal-(1->3)-alpha-D-Glc-(1->3)-alpha-L-Rha-(1->3)-D-ribitol-5-phosphate

> <IUPAC_NAME>
alpha-D-galactopyranosyl-(1->3)-alpha-D-glucopyranosyl-(1->3)-alpha-L-rhamnopyranosyl-(1->3)-5-O-phosphono-D-ribitol

> <FORMULA>
C23H43O22P

> <MASS>
702.54810

> <MONOISOTOPIC_MASS>
702.19836

> <CHARGE>
0

> <SMILES>
C[C@@H]1O[C@@H](O[C@@H]([C@@H](O)CO)[C@H](O)COP(O)(O)=O)[C@H](O)[C@H](O[C@H]2O[C@H](CO)[C@@H](O)[C@H](O[C@H]3O[C@H](CO)[C@H](O)[C@H](O)[C@H]3O)[C@H]2O)[C@H]1O

> <INCHI>
InChI=1S/C23H43O22P/c1-6-11(29)19(16(34)22(40-6)43-18(7(27)2-24)8(28)5-39-46(36,37)38)44-23-17(35)20(13(31)10(4-26)42-23)45-21-15(33)14(32)12(30)9(3-25)41-21/h6-35H,2-5H2,1H3,(H2,36,37,38)/t6-,7-,8+,9+,10+,11-,12-,13+,14-,15+,16+,17+,18-,19+,20-,21+,22-,23+/m0/s1

> <INCHIKEY>
YCKIPIFPDPUHBC-GVNQVVGMSA-N

> <PUBMED_CITATION>
19856369

$$$$

Marvin  01241116342D          

 28 30  0  0  0  0            999 V2000
    8.0294   -4.6566    0.0000 N   0  0  0  0  0  0  0  0  0  0  0  0
    8.7439   -4.2441    0.0000 C   0  0  0  0  0  0  0  0  0  0  0  0
    8.0294   -7.1316    0.0000 N   0  0  0  0  0  0  0  0  0  0  0  0
    8.0294   -5.4816    0.0000 C   0  0  0  0  0  0  0  0  0  0  0  0
    8.7439   -5.8941    0.0000 C   0  0  0  0  0  0  0  0  0  0  0  0
    7.3150   -5.8941    0.0000 C   0  0  0  0  0  0  0  0  0  0  0  0
    8.7439   -3.4191    0.0000 O   0  0  0  0  0  0  0  0  0  0  0  0
    7.3150   -4.2441    0.0000 C   0  0  0  0  0  0  0  0  0  0  0  0
    7.3150   -6.7191    0.0000 C   0  0  0  0  0  0  0  0  0  0  0  0
    8.7439   -6.7191    0.0000 C   0  0  0  0  0  0  0  0  0  0  0  0
    8.0294   -7.9566    0.0000 C   0  0  0  0  0  0  0  0  0  0  0  0
    8.7439   -8.3691    0.0000 C   0  0  0  0  0  0  0  0  0  0  0  0
    8.7439   -9.1941    0.0000 C   0  0  0  0  0  0  0  0  0  0  0  0
    9.4583   -4.6566    0.0000 C   0  0  0  0  0  0  0  0  0  0  0  0
    6.6005   -4.6566    0.0000 C   0  0  0  0  0  0  0  0  0  0  0  0
    7.3150   -3.4191    0.0000 C   0  0  0  0  0  0  0  0  0  0  0  0
    9.4583   -9.6066    0.0000 C   0  0  0  0  0  0  0  0  0  0  0  0
    8.0294   -9.6066    0.0000 C   0  0  0  0  0  0  0  0  0  0  0  0
    5.8860   -4.2441    0.0000 C   0  0  0  0  0  0  0  0  0  0  0  0
    6.6005   -3.0066    0.0000 C   0  0  0  0  0  0  0  0  0  0  0  0
    9.4583  -10.4316    0.0000 C   0  0  0  0  0  0  0  0  0  0  0  0
    8.0294  -10.4316    0.0000 C   0  0  0  0  0  0  0  0  0  0  0  0
    5.8860   -3.4191    0.0000 C   0  0  0  0  0  0  0  0  0  0  0  0
    8.7439  -10.8441    0.0000 C   0  0  0  0  0  0  0  0  0  0  0  0
   10.1729   -4.2441    0.0000 C   0  0  0  0  0  0  0  0  0  0  0  0
   10.8873   -4.6567    0.0000 C   0  0  0  0  0  0  0  0  0  0  0  0
   11.6018   -4.2442    0.0000 O   0  0  0  0  0  0  0  0  0  0  0  0
   10.8873   -5.4817    0.0000 O   0  0  0  0  0  0  0  0  0  0  0  0
  2  1  1  0  0  0  0
  4  1  1  0  0  0  0
  8  1  1  0  0  0  0
  7  2  2  0  0  0  0
 14  2  1  0  0  0  0
  9  3  1  0  0  0  0
 11  3  1  0  0  0  0
 10  3  1  0  0  0  0
  5  4  1  0  0  0  0
  6  4  1  0  0  0  0
 10  5  1  0  0  0  0
  9  6  1  0  0  0  0
 15  8  1  0  0  0  0
 16  8  2  0  0  0  0
 12 11  1  0  0  0  0
 13 12  1  0  0  0  0
 17 13  1  0  0  0  0
 18 13  2  0  0  0  0
 19 15  2  0  0  0  0
 20 16  1  0  0  0  0
 21 17  2  0  0  0  0
 22 18  1  0  0  0  0
 23 19  1  0  0  0  0
 23 20  2  0  0  0  0
 24 21  1  0  0  0  0
 24 22  2  0  0  0  0
 14 25  1  0  0  0  0
 27 26  1  0  0  0  0
 28 26  2  0  0  0  0
 25 26  1  0  0  0  0
M  END
> <ID>
CHEBI:61106

> <NAME>
carboxyfentanyl

> <DEFINITION>
The dicarboxylic acid monoamide resulting from the formal condensation of aryl amino group of N-phenyl-1-(2-phenylethyl)piperidin-4-amine with succinic acid.

> <STAR>
3

> <IUPAC_NAME>
4-oxo-4-{phenyl[1-(2-phenylethyl)piperidin-4-yl]amino}butanoic acid

> <FORMULA>
C23H28N2O3

> <MASS>
380.48000

> <MONOISOTOPIC_MASS>
380.20999

> <CHARGE>
0

> <SMILES>
OC(=O)CCC(=O)N(C1CCN(CC1)CCc1ccccc1)c1ccccc1

> <INCHI>
InChI=1S/C23H28N2O3/c26-22(11-12-23(27)28)25(20-9-5-2-6-10-20)21-14-17-24(18-15-21)16-13-19-7-3-1-4-8-19/h1-10,21H,11-18H2,(H,27,28)

> <INCHIKEY>
MEVFKTVEGJUHHI-UHFFFAOYSA-N

> <REAXYS_REGISTRY_NUMBER>
11245147

> <PUBMED_CITATION>
16621415; 17927164

$$$$

Marvin  02181110512D          

 46 48  0  0  1  0            999 V2000
    5.6341  -29.2825    0.0000 C   0  0  2  0  0  0  0  0  0  0  0  0
    5.6341  -30.1075    0.0000 C   0  0  1  0  0  0  0  0  0  0  0  0
    4.9195  -28.8700    0.0000 O   0  0  0  0  0  0  0  0  0  0  0  0
    4.9195  -30.5200    0.0000 C   0  0  2  0  0  0  0  0  0  0  0  0
    4.2051  -29.2825    0.0000 C   0  0  1  0  0  0  0  0  0  0  0  0
    4.2051  -30.1075    0.0000 C   0  0  2  0  0  0  0  0  0  0  0  0
    6.3485  -28.8700    0.0000 O   0  0  0  0  0  0  0  0  0  0  0  0
    6.3485  -30.5200    0.0000 O   0  0  0  0  0  0  0  0  0  0  0  0
    4.9195  -31.3450    0.0000 O   0  0  0  0  0  0  0  0  0  0  0  0
    3.4906  -30.5200    0.0000 O   0  0  0  0  0  0  0  0  0  0  0  0
    3.4906  -28.8700    0.0000 C   0  0  0  0  0  0  0  0  0  0  0  0
    2.7762  -29.2825    0.0000 O   0  0  0  0  0  0  0  0  0  0  0  0
    7.0631  -26.8075    0.0000 C   0  0  2  0  0  0  0  0  0  0  0  0
    7.0631  -27.6325    0.0000 C   0  0  1  0  0  0  0  0  0  0  0  0
    6.3485  -26.3950    0.0000 O   0  0  0  0  0  0  0  0  0  0  0  0
    6.3485  -28.0450    0.0000 C   0  0  2  0  0  0  0  0  0  0  0  0
    5.6341  -26.8075    0.0000 C   0  0  1  0  0  0  0  0  0  0  0  0
    5.6341  -27.6325    0.0000 C   0  0  1  0  0  0  0  0  0  0  0  0
    7.7775  -26.3950    0.0000 O   0  0  0  0  0  0  0  0  0  0  0  0
    7.7775  -28.0450    0.0000 O   0  0  0  0  0  0  0  0  0  0  0  0
    4.9196  -28.0450    0.0000 O   0  0  0  0  0  0  0  0  0  0  0  0
    4.9196  -26.3950    0.0000 C   0  0  0  0  0  0  0  0  0  0  0  0
    4.2051  -26.8075    0.0000 O   0  0  0  0  0  0  0  0  0  0  0  0
    8.4920  -24.3325    0.0000 C   0  0  1  0  0  0  0  0  0  0  0  0
    8.4920  -25.1575    0.0000 C   0  0  1  0  0  0  0  0  0  0  0  0
    7.7776  -23.9200    0.0000 O   0  0  0  0  0  0  0  0  0  0  0  0
    7.7776  -25.5700    0.0000 C   0  0  1  0  0  0  0  0  0  0  0  0
    7.0631  -24.3325    0.0000 C   0  0  2  0  0  0  0  0  0  0  0  0
    7.0631  -25.1575    0.0000 C   0  0  2  0  0  0  0  0  0  0  0  0
    9.2065  -25.5700    0.0000 O   0  0  0  0  0  0  0  0  0  0  0  0
    6.3487  -25.5700    0.0000 O   0  0  0  0  0  0  0  0  0  0  0  0
    6.3487  -23.9200    0.0000 C   0  0  0  0  0  0  0  0  0  0  0  0
    9.2065  -23.9200    0.0000 O   0  0  0  0  0  0  0  0  0  0  0  0
    9.9222  -21.8625    0.0000 O   0  0  0  0  0  0  0  0  0  0  0  0
    7.7651  -23.0962    0.0000 O   0  0  0  0  0  0  0  0  0  0  0  0
    8.4861  -22.6862    0.0000 C   0  0  0  0  0  0  0  0  0  0  0  0
    9.2070  -23.0962    0.0000 C   0  0  2  0  0  0  0  0  0  0  0  0
    9.9222  -22.6862    0.0000 C   0  0  2  0  0  0  0  0  0  0  0  0
   10.6374  -23.0962    0.0000 C   0  0  2  0  0  0  0  0  0  0  0  0
   11.3582  -22.6862    0.0000 C   0  0  0  0  0  0  0  0  0  0  0  0
   12.0793  -23.0962    0.0000 O   0  0  0  0  0  0  0  0  0  0  0  0
   10.6379  -23.9200    0.0000 O   0  0  0  0  0  0  0  0  0  0  0  0
    7.0533  -22.6790    0.0000 P   0  0  0  0  0  0  0  0  0  0  0  0
    6.3362  -23.0869    0.0000 O   0  0  0  0  0  0  0  0  0  0  0  0
    7.0587  -21.8541    0.0000 O   0  0  0  0  0  0  0  0  0  0  0  0
    7.0533  -23.5040    0.0000 O   0  0  0  0  0  0  0  0  0  0  0  0
  1  2  1  0  0  0  0
  1  3  1  0  0  0  0
  2  4  1  0  0  0  0
  3  5  1  0  0  0  0
  4  6  1  0  0  0  0
  5  6  1  0  0  0  0
  1  7  1  6  0  0  0
  2  8  1  6  0  0  0
  4  9  1  1  0  0  0
  6 10  1  1  0  0  0
  5 11  1  1  0  0  0
 12 11  1  0  0  0  0
 13 14  1  0  0  0  0
 13 15  1  0  0  0  0
 14 16  1  0  0  0  0
 15 17  1  0  0  0  0
 16 18  1  0  0  0  0
 17 18  1  0  0  0  0
 13 19  1  6  0  0  0
 14 20  1  6  0  0  0
 16  7  1  1  0  0  0
 18 21  1  6  0  0  0
 17 22  1  1  0  0  0
 23 22  1  0  0  0  0
 24 25  1  0  0  0  0
 24 26  1  0  0  0  0
 25 27  1  0  0  0  0
 26 28  1  0  0  0  0
 27 29  1  0  0  0  0
 28 29  1  0  0  0  0
 25 30  1  6  0  0  0
 27 19  1  6  0  0  0
 29 31  1  1  0  0  0
 28 32  1  6  0  0  0
 35 36  1  0  0  0  0
 36 37  1  0  0  0  0
 37 38  1  0  0  0  0
 38 39  1  0  0  0  0
 39 40  1  0  0  0  0
 40 41  1  0  0  0  0
 37 33  1  6  0  0  0
 38 34  1  1  0  0  0
 39 42  1  6  0  0  0
 24 33  1  1  0  0  0
 35 43  1  0  0  0  0
 43 44  1  0  0  0  0
 43 45  2  0  0  0  0
 43 46  1  0  0  0  0
M  END
> <ID>
CHEBI:61107

> <NAME>
alpha-D-Galp-(1->3)-alpha-D-Glcp-(1->3)-alpha-L-Rhap-(1->4)-D-ribitol-5-phosphate

> <DEFINITION>
A tetrasaccharide derivative comprising α-D-Galp-(1→3)-α-D-Glcp-(1→3)-α-L-Rhap-(1→4)-D-ribitol phosphorylated at position 5 of ribitol.

> <STAR>
3

> <SYNONYM>
SPn6B polysaccharide unit; alpha-D-galactosyl-(1->3)-alpha-D-glucosyl-(1->3)-alpha-L-rhamnosyl-(1->4)-5-O-phosphono-D-ribitol; alpha-D-galactopyranosyl-(1->3)-alpha-D-glucopyranosyl-(1->3)-6-deoxy-alpha-L-mannopyranosyl-(1->4)-5-O-phosphono-D-ribitol; alpha-D-Gal-(1->3)-alpha-D-Glc-(1->3)-alpha-L-Rha-(1->4)-D-ribitol-5-phosphate

> <IUPAC_NAME>
alpha-D-galactopyranosyl-(1->3)-alpha-D-glucopyranosyl-(1->3)-alpha-L-rhamnopyranosyl-(1->4)-5-O-phosphono-D-ribitol

> <FORMULA>
C23H43O22P

> <MASS>
702.54810

> <MONOISOTOPIC_MASS>
702.19836

> <CHARGE>
0

> <SMILES>
C[C@@H]1O[C@@H](O[C@H](COP(O)(O)=O)[C@@H](O)[C@@H](O)CO)[C@H](O)[C@H](O[C@H]2O[C@H](CO)[C@@H](O)[C@H](O[C@H]3O[C@H](CO)[C@H](O)[C@H](O)[C@H]3O)[C@H]2O)[C@H]1O

> <INCHI>
InChI=1S/C23H43O22P/c1-6-11(28)19(17(34)22(40-6)43-10(5-39-46(36,37)38)12(29)7(27)2-24)44-23-18(35)20(14(31)9(4-26)42-23)45-21-16(33)15(32)13(30)8(3-25)41-21/h6-35H,2-5H2,1H3,(H2,36,37,38)/t6-,7-,8+,9+,10+,11-,12-,13-,14+,15-,16+,17+,18+,19+,20-,21+,22-,23+/m0/s1

> <INCHIKEY>
ZMDYUFSIUNXALU-XSDHNAQOSA-N

$$$$

Marvin  02181110412D          

 46 48  0  0  1  0            999 V2000
   17.2712  -23.7991    0.0000 C   0  0  2  0  0  0  0  0  0  0  0  0
   17.2712  -24.6241    0.0000 C   0  0  1  0  0  0  0  0  0  0  0  0
   16.5567  -23.3866    0.0000 O   0  0  0  0  0  0  0  0  0  0  0  0
   16.5567  -25.0366    0.0000 C   0  0  2  0  0  0  0  0  0  0  0  0
   15.8423  -23.7991    0.0000 C   0  0  1  0  0  0  0  0  0  0  0  0
   15.8423  -24.6241    0.0000 C   0  0  1  0  0  0  0  0  0  0  0  0
   17.9857  -23.3866    0.0000 O   0  0  0  0  0  0  0  0  0  0  0  0
   17.9857  -25.0366    0.0000 O   0  0  0  0  0  0  0  0  0  0  0  0
   16.5567  -25.8615    0.0000 O   0  0  0  0  0  0  0  0  0  0  0  0
   15.1277  -25.0366    0.0000 O   0  0  0  0  0  0  0  0  0  0  0  0
   15.1277  -23.3866    0.0000 C   0  0  0  0  0  0  0  0  0  0  0  0
   14.4134  -23.7991    0.0000 O   0  0  0  0  0  0  0  0  0  0  0  0
   18.7002  -21.3242    0.0000 C   0  0  2  0  0  0  0  0  0  0  0  0
   18.7002  -22.1491    0.0000 C   0  0  1  0  0  0  0  0  0  0  0  0
   17.9857  -20.9117    0.0000 O   0  0  0  0  0  0  0  0  0  0  0  0
   17.9857  -22.5616    0.0000 C   0  0  2  0  0  0  0  0  0  0  0  0
   17.2712  -21.3242    0.0000 C   0  0  1  0  0  0  0  0  0  0  0  0
   17.2712  -22.1491    0.0000 C   0  0  1  0  0  0  0  0  0  0  0  0
   19.4146  -20.9117    0.0000 O   0  0  0  0  0  0  0  0  0  0  0  0
   19.4146  -22.5616    0.0000 O   0  0  0  0  0  0  0  0  0  0  0  0
   16.5567  -22.5616    0.0000 O   0  0  0  0  0  0  0  0  0  0  0  0
   16.5567  -20.9117    0.0000 C   0  0  0  0  0  0  0  0  0  0  0  0
   15.8423  -21.3242    0.0000 O   0  0  0  0  0  0  0  0  0  0  0  0
   20.1292  -18.8492    0.0000 C   0  0  1  0  0  0  0  0  0  0  0  0
   20.1292  -19.6742    0.0000 C   0  0  1  0  0  0  0  0  0  0  0  0
   19.4146  -18.4367    0.0000 O   0  0  0  0  0  0  0  0  0  0  0  0
   19.4146  -20.0867    0.0000 C   0  0  1  0  0  0  0  0  0  0  0  0
   18.7002  -18.8492    0.0000 C   0  0  2  0  0  0  0  0  0  0  0  0
   18.7002  -19.6742    0.0000 C   0  0  2  0  0  0  0  0  0  0  0  0
   20.8436  -20.0867    0.0000 O   0  0  0  0  0  0  0  0  0  0  0  0
   17.9857  -20.0867    0.0000 O   0  0  0  0  0  0  0  0  0  0  0  0
   17.9857  -18.4367    0.0000 C   0  0  0  0  0  0  0  0  0  0  0  0
   20.1281  -16.3780    0.0000 O   0  0  0  0  0  0  0  0  0  0  0  0
   18.6867  -17.2016    0.0000 O   0  0  0  0  0  0  0  0  0  0  0  0
   19.4077  -17.6117    0.0000 C   0  0  0  0  0  0  0  0  0  0  0  0
   20.1285  -17.2016    0.0000 C   0  0  2  0  0  0  0  0  0  0  0  0
   20.8437  -17.6117    0.0000 C   0  0  2  0  0  0  0  0  0  0  0  0
   21.5588  -17.2016    0.0000 C   0  0  2  0  0  0  0  0  0  0  0  0
   22.2798  -17.6117    0.0000 C   0  0  0  0  0  0  0  0  0  0  0  0
   23.0007  -17.2016    0.0000 O   0  0  0  0  0  0  0  0  0  0  0  0
   21.5593  -16.3780    0.0000 O   0  0  0  0  0  0  0  0  0  0  0  0
   20.8437  -18.4367    0.0000 O   0  0  0  0  0  0  0  0  0  0  0  0
   18.6867  -16.3767    0.0000 P   0  0  0  0  0  0  0  0  0  0  0  0
   17.9722  -15.9642    0.0000 O   0  0  0  0  0  0  0  0  0  0  0  0
   19.4011  -15.9642    0.0000 O   0  0  0  0  0  0  0  0  0  0  0  0
   17.9722  -16.7891    0.0000 O   0  0  0  0  0  0  0  0  0  0  0  0
  1  2  1  0  0  0  0
  1  3  1  0  0  0  0
  2  4  1  0  0  0  0
  3  5  1  0  0  0  0
  4  6  1  0  0  0  0
  5  6  1  0  0  0  0
  1  7  1  6  0  0  0
  2  8  1  6  0  0  0
  4  9  1  1  0  0  0
  6 10  1  6  0  0  0
  5 11  1  1  0  0  0
 12 11  1  0  0  0  0
 13 14  1  0  0  0  0
 13 15  1  0  0  0  0
 14 16  1  0  0  0  0
 15 17  1  0  0  0  0
 16 18  1  0  0  0  0
 17 18  1  0  0  0  0
 13 19  1  6  0  0  0
 14 20  1  6  0  0  0
 16  7  1  1  0  0  0
 18 21  1  6  0  0  0
 17 22  1  1  0  0  0
 23 22  1  0  0  0  0
 24 25  1  0  0  0  0
 24 26  1  0  0  0  0
 25 27  1  0  0  0  0
 26 28  1  0  0  0  0
 27 29  1  0  0  0  0
 28 29  1  0  0  0  0
 25 30  1  6  0  0  0
 27 19  1  6  0  0  0
 29 31  1  1  0  0  0
 28 32  1  6  0  0  0
 34 35  1  0  0  0  0
 35 36  1  0  0  0  0
 36 37  1  0  0  0  0
 37 38  1  0  0  0  0
 38 39  1  0  0  0  0
 39 40  1  0  0  0  0
 36 33  1  1  0  0  0
 38 41  1  1  0  0  0
 37 42  1  6  0  0  0
 24 42  1  1  0  0  0
 34 43  1  0  0  0  0
 43 44  1  0  0  0  0
 43 45  2  0  0  0  0
 43 46  1  0  0  0  0
M  END
> <ID>
CHEBI:61108

> <NAME>
alpha-D-Glcp-(1->3)-alpha-D-Glcp-(1->3)-alpha-L-Rhap-(1->3)-D-ribitol-5-phosphate

> <DEFINITION>
A tetrasaccharide derivative comprising the α-D-Glcp-(1→3)-α-D-Glcp-(1→3)-α-L-Rhap-(1→3)-D-ribitol phosphorylated at position 5 of ribitol.

> <STAR>
3

> <SYNONYM>
SPn6C polysaccharide unit; alpha-D-glucosyl-(1->3)-alpha-D-glucosyl-(1->3)-alpha-L-rhamnosyl-(1->3)-5-O-phosphono-D-ribitol; alpha-D-glucopyranosyl-(1->3)-alpha-D-glucopyranosyl-(1->3)-6-deoxy-alpha-L-mannopyranosyl-(1->3)-5-O-phosphono-D-ribitol; alpha-D-Glc-(1->3)-alpha-D-Glc-(1->3)-alpha-L-Rha-(1->3)-D-ribitol-5-phosphate

> <IUPAC_NAME>
alpha-D-glucopyranosyl-(1->3)-alpha-D-glucopyranosyl-(1->3)-alpha-L-rhamnopyranosyl-(1->3)-5-O-phosphono-D-ribitol

> <FORMULA>
C23H43O22P

> <MASS>
702.54810

> <MONOISOTOPIC_MASS>
702.19836

> <CHARGE>
0

> <SMILES>
C[C@@H]1O[C@@H](O[C@@H]([C@@H](O)CO)[C@H](O)COP(O)(O)=O)[C@H](O)[C@H](O[C@H]2O[C@H](CO)[C@@H](O)[C@H](O[C@H]3O[C@H](CO)[C@@H](O)[C@H](O)[C@H]3O)[C@H]2O)[C@H]1O

> <INCHI>
InChI=1S/C23H43O22P/c1-6-11(29)19(16(34)22(40-6)43-18(7(27)2-24)8(28)5-39-46(36,37)38)44-23-17(35)20(13(31)10(4-26)42-23)45-21-15(33)14(32)12(30)9(3-25)41-21/h6-35H,2-5H2,1H3,(H2,36,37,38)/t6-,7-,8+,9+,10+,11-,12+,13+,14-,15+,16+,17+,18-,19+,20-,21+,22-,23+/m0/s1

> <INCHIKEY>
YCKIPIFPDPUHBC-YQWLQOSYSA-N

> <PUBMED_CITATION>
19856369

$$$$

Marvin  01241119372D          

 23 24  0  0  1  0            999 V2000
   13.1684  -15.2874    0.0000 C   0  0  2  0  0  0  0  0  0  0  0  0
   13.1684  -16.1124    0.0000 C   0  0  1  0  0  0  0  0  0  0  0  0
   12.4539  -14.8749    0.0000 O   0  0  0  0  0  0  0  0  0  0  0  0
   12.4539  -16.5249    0.0000 C   0  0  2  0  0  0  0  0  0  0  0  0
   11.7394  -15.2874    0.0000 C   0  0  1  0  0  0  0  0  0  0  0  0
   11.7394  -16.1124    0.0000 C   0  0  1  0  0  0  0  0  0  0  0  0
   13.8829  -14.8749    0.0000 O   0  0  0  0  0  0  0  0  0  0  0  0
   13.8829  -16.5249    0.0000 O   0  0  0  0  0  0  0  0  0  0  0  0
   12.4539  -17.3499    0.0000 O   0  0  0  0  0  0  0  0  0  0  0  0
   11.0250  -16.5249    0.0000 O   0  0  0  0  0  0  0  0  0  0  0  0
   11.0250  -14.8749    0.0000 C   0  0  0  0  0  0  0  0  0  0  0  0
   10.3105  -15.2874    0.0000 O   0  0  0  0  0  0  0  0  0  0  0  0
   14.5974  -12.8124    0.0000 C   0  0  1  0  0  0  0  0  0  0  0  0
   14.5974  -13.6374    0.0000 C   0  0  1  0  0  0  0  0  0  0  0  0
   13.8829  -12.3999    0.0000 O   0  0  0  0  0  0  0  0  0  0  0  0
   13.8829  -14.0499    0.0000 C   0  0  2  0  0  0  0  0  0  0  0  0
   13.1684  -12.8124    0.0000 C   0  0  1  0  0  0  0  0  0  0  0  0
   13.1684  -13.6374    0.0000 C   0  0  1  0  0  0  0  0  0  0  0  0
   15.3119  -12.3998    0.0000 O   0  0  0  0  0  0  0  0  0  0  0  0
   15.3119  -14.0499    0.0000 O   0  0  0  0  0  0  0  0  0  0  0  0
   12.4540  -14.0498    0.0000 O   0  0  0  0  0  0  0  0  0  0  0  0
   12.4540  -12.3999    0.0000 C   0  0  0  0  0  0  0  0  0  0  0  0
   11.7395  -12.8124    0.0000 O   0  0  0  0  0  0  0  0  0  0  0  0
  1  2  1  0  0  0  0
  1  3  1  0  0  0  0
  2  4  1  0  0  0  0
  3  5  1  0  0  0  0
  4  6  1  0  0  0  0
  5  6  1  0  0  0  0
  1  7  1  6  0  0  0
  2  8  1  6  0  0  0
  4  9  1  1  0  0  0
  6 10  1  6  0  0  0
  5 11  1  1  0  0  0
 12 11  1  0  0  0  0
 13 14  1  0  0  0  0
 13 15  1  0  0  0  0
 14 16  1  0  0  0  0
 15 17  1  0  0  0  0
 16 18  1  0  0  0  0
 17 18  1  0  0  0  0
 13 19  1  1  0  0  0
 14 20  1  6  0  0  0
 16  7  1  1  0  0  0
 18 21  1  6  0  0  0
 17 22  1  1  0  0  0
 23 22  1  0  0  0  0
M  END
> <ID>
CHEBI:61110

> <NAME>
alpha-D-Glcp-(1->3)-beta-D-Glcp

> <DEFINITION>
A laminarabiose having β-configuration at the reducing end anomeric centre.

> <STAR>
3

> <SYNONYM>
alpha-D-glucosyl-(1->3)-beta-D-glucose; alpha-D-Glc-(1->3)-beta-D-Glc; 3-O-alpha-D-glucosyl-beta-D-glucose; 3-O-alpha-D-glucopyranosyl-beta-D-glucopyranose

> <IUPAC_NAME>
alpha-D-glucopyranosyl-(1->3)-beta-D-glucopyranose

> <FORMULA>
C12H22O11

> <MASS>
342.29650

> <MONOISOTOPIC_MASS>
342.11621

> <CHARGE>
0

> <SMILES>
OC[C@H]1O[C@H](O[C@@H]2[C@@H](O)[C@H](O)O[C@H](CO)[C@H]2O)[C@H](O)[C@@H](O)[C@@H]1O

> <INCHI>
InChI=1S/C12H22O11/c13-1-3-5(15)7(17)8(18)12(22-3)23-10-6(16)4(2-14)21-11(20)9(10)19/h3-20H,1-2H2/t3-,4-,5-,6-,7+,8-,9-,10+,11-,12-/m1/s1

> <INCHIKEY>
QIGJYVCQYDKYDW-TZFDJWQMSA-N

> <PUBMED_CITATION>
19856369

$$$$

Marvin  02021114352D          

 49 52  0  0  1  0            999 V2000
   16.2567  -13.7267    0.0000 C   0  0  1  0  0  0  0  0  0  0  0  0
   15.5397  -14.1347    0.0000 C   0  0  1  0  0  0  0  0  0  0  0  0
   16.2567  -12.8984    0.0000 C   0  0  1  0  0  0  0  0  0  0  0  0
   15.5397  -12.4905    0.0000 O   0  0  0  0  0  0  0  0  0  0  0  0
   14.8226  -13.7267    0.0000 C   0  0  1  0  0  0  0  0  0  0  0  0
   14.8226  -12.8984    0.0000 C   0  0  2  0  0  0  0  0  0  0  0  0
   16.9613  -14.1347    0.0000 O   0  0  0  0  0  0  0  0  0  0  0  0
   15.5397  -14.9629    0.0000 O   0  0  0  0  0  0  0  0  0  0  0  0
   14.1057  -14.1347    0.0000 O   0  0  0  0  0  0  0  0  0  0  0  0
   14.1057  -12.4905    0.0000 C   0  0  0  0  0  0  0  0  0  0  0  0
   16.9699  -12.4837    0.0000 O   0  0  0  0  0  0  0  0  0  0  0  0
   14.8267   -9.5463    0.0000 C   0  0  1  0  0  0  0  0  0  0  0  0
   14.1122   -9.9588    0.0000 C   0  0  1  0  0  0  0  0  0  0  0  0
   14.8267   -8.7216    0.0000 O   0  0  0  0  0  0  0  0  0  0  0  0
   13.3978   -9.5463    0.0000 C   0  0  2  0  0  0  0  0  0  0  0  0
   14.1123   -8.3090    0.0000 C   0  0  1  0  0  0  0  0  0  0  0  0
   13.3979   -8.7213    0.0000 C   0  0  2  0  0  0  0  0  0  0  0  0
   15.5412   -9.9589    0.0000 O   0  0  0  0  0  0  0  0  0  0  0  0
   12.6833   -9.9587    0.0000 O   0  0  0  0  0  0  0  0  0  0  0  0
   12.6836   -8.3090    0.0000 O   0  0  0  0  0  0  0  0  0  0  0  0
   14.1123   -7.4842    0.0000 C   0  0  0  0  0  0  0  0  0  0  0  0
   13.3981   -7.0716    0.0000 O   0  0  0  0  0  0  0  0  0  0  0  0
   17.6842   -8.7214    0.0000 C   0  0  1  0  0  0  0  0  0  0  0  0
   17.6842   -9.5463    0.0000 C   0  0  1  0  0  0  0  0  0  0  0  0
   16.9699   -8.3090    0.0000 O   0  0  0  0  0  0  0  0  0  0  0  0
   16.9699   -9.9589    0.0000 C   0  0  2  0  0  0  0  0  0  0  0  0
   16.2554   -8.7214    0.0000 C   0  0  1  0  0  0  0  0  0  0  0  0
   16.2554   -9.5463    0.0000 C   0  0  1  0  0  0  0  0  0  0  0  0
   18.3987   -8.3090    0.0000 O   0  0  0  0  0  0  0  0  0  0  0  0
   18.3987   -9.9589    0.0000 N   0  0  0  0  0  0  0  0  0  0  0  0
   16.9699  -10.7838    0.0000 O   0  0  0  0  0  0  0  0  0  0  0  0
   15.5412   -8.3090    0.0000 C   0  0  0  0  0  0  0  0  0  0  0  0
   17.6746  -12.0618    0.0000 C   0  0  1  0  0  0  0  0  0  0  0  0
   18.3915  -12.4837    0.0000 C   0  0  1  0  0  0  0  0  0  0  0  0
   17.6746  -11.2055    0.0000 C   0  0  1  0  0  0  0  0  0  0  0  0
   18.3915  -10.7838    0.0000 O   0  0  0  0  0  0  0  0  0  0  0  0
   19.1085  -12.0618    0.0000 C   0  0  1  0  0  0  0  0  0  0  0  0
   19.1085  -11.2055    0.0000 C   0  0  2  0  0  0  0  0  0  0  0  0
   18.3915  -13.3400    0.0000 O   0  0  0  0  0  0  0  0  0  0  0  0
   19.8254  -12.4837    0.0000 O   0  0  0  0  0  0  0  0  0  0  0  0
   19.8254  -10.7838    0.0000 C   0  0  0  0  0  0  0  0  0  0  0  0
   19.1131   -9.5463    0.0000 C   0  0  0  0  0  0  0  0  0  0  0  0
   19.8275   -9.9589    0.0000 C   0  0  0  0  0  0  0  0  0  0  0  0
   19.1131   -8.7213    0.0000 O   0  0  0  0  0  0  0  0  0  0  0  0
   15.5412   -7.4841    0.0000 O   0  0  0  0  0  0  0  0  0  0  0  0
   14.1122  -10.7838    0.0000 N   0  0  0  0  0  0  0  0  0  0  0  0
   13.3978  -11.1962    0.0000 C   0  0  0  0  0  0  0  0  0  0  0  0
   13.3977  -12.0212    0.0000 O   0  0  0  0  0  0  0  0  0  0  0  0
   12.6833  -10.7838    0.0000 C   0  0  0  0  0  0  0  0  0  0  0  0
  2  1  1  0  0  0  0
  3  1  1  0  0  0  0
  1  7  1  1  0  0  0
  5  2  1  0  0  0  0
  2  8  1  6  0  0  0
  4  3  1  0  0  0  0
  6  4  1  0  0  0  0
  5  9  1  6  0  0  0
  6  5  1  0  0  0  0
  6 10  1  6  0  0  0
  3 11  1  1  0  0  0
 12 13  1  0  0  0  0
 12 14  1  0  0  0  0
 13 15  1  0  0  0  0
 14 16  1  0  0  0  0
 15 17  1  0  0  0  0
 16 17  1  0  0  0  0
 15 19  1  1  0  0  0
 17 20  1  1  0  0  0
 16 21  1  1  0  0  0
 22 21  1  0  0  0  0
 23 24  1  0  0  0  0
 23 25  1  0  0  0  0
 24 26  1  0  0  0  0
 25 27  1  0  0  0  0
 26 28  1  0  0  0  0
 27 28  1  0  0  0  0
 23 29  1  1  0  0  0
 24 30  1  6  0  0  0
 26 31  1  1  0  0  0
 28 18  1  6  0  0  0
 27 32  1  1  0  0  0
 34 33  1  0  0  0  0
 35 33  1  0  0  0  0
 33 11  1  6  0  0  0
 37 34  1  0  0  0  0
 34 39  1  1  0  0  0
 36 35  1  0  0  0  0
 35 31  1  6  0  0  0
 38 36  1  0  0  0  0
 37 40  1  1  0  0  0
 38 37  1  0  0  0  0
 38 41  1  1  0  0  0
 30 42  1  0  0  0  0
 42 43  1  0  0  0  0
 42 44  2  0  0  0  0
 32 45  1  0  0  0  0
 12 18  1  1  0  0  0
 13 46  1  6  0  0  0
 48 47  2  0  0  0  0
 49 47  1  0  0  0  0
 46 47  1  0  0  0  0
M  END
> <ID>
CHEBI:61171

> <NAME>
beta-D-GalpNAc-(1->4)-[alpha-L-Fucp-(1->2)-alpha-L-Fucp-(1->3)]-beta-D-GlcpNAc

> <DEFINITION>
A branched amino tetrasaccharide consisting of N-acetyl-β-glucosamine at the reducing end with an α-fucosyl-(1→2)-α-fucosyl group attached at the 3-position and an N-acetyl-β-glucosaminyl residue attached at the 4-position.

> <STAR>
3

> <SYNONYM>
N-acetyl-beta-D-galactosaminyl-(1->4)-[alpha-L-fucopyranosyl-(1->2)-alpha-L-fucopyranosyl-(1->3)]-N-acetyl-beta-D-glucosamine; beta-D-GalNAc-(1->4)-[alpha-L-Fuc-(1->2)-alpha-L-Fuc-(1->3)]-beta-D-GlcNAc; 2-acetamido-2-deoxy-beta-D-galactopyranosyl-(1->4)-[6-deoxy-alpha-L-galactopyranosyl-(1->2)-6-deoxy-alpha-L-galactopyranosyl-(1->3)]-2-acetamido-2-deoxy-beta-D-glucopyranose

> <IUPAC_NAME>
2-acetamido-2-deoxy-beta-D-galactopyranosyl-(1->4)-[alpha-L-fucopyranosyl-(1->2)-alpha-L-fucopyranosyl-(1->3)]-2-acetamido-2-deoxy-beta-D-glucopyranose

> <FORMULA>
C28H48N2O19

> <MASS>
716.68270

> <MONOISOTOPIC_MASS>
716.28513

> <CHARGE>
0

> <SMILES>
C[C@@H]1O[C@@H](O[C@H]2[C@H](O)[C@H](O)[C@H](C)O[C@H]2O[C@@H]2[C@@H](NC(C)=O)[C@H](O)O[C@H](CO)[C@H]2O[C@@H]2O[C@H](CO)[C@H](O)[C@H](O)[C@H]2NC(C)=O)[C@@H](O)[C@H](O)[C@@H]1O

> <INCHI>
InChI=1S/C28H48N2O19/c1-7-15(35)19(39)21(41)27(43-7)49-24-20(40)16(36)8(2)44-28(24)48-23-14(30-10(4)34)25(42)45-12(6-32)22(23)47-26-13(29-9(3)33)18(38)17(37)11(5-31)46-26/h7-8,11-28,31-32,35-42H,5-6H2,1-4H3,(H,29,33)(H,30,34)/t7-,8-,11+,12+,13+,14+,15+,16+,17-,18+,19+,20+,21-,22+,23+,24-,25+,26-,27-,28-/m0/s1

> <INCHIKEY>
YRVBJXGKYIQPJT-LUBCOEOPSA-N

> <PUBMED_CITATION>
11254599; 14990315

$$$$

Marvin  02021116282D          

 50 53  0  0  1  0            999 V2000
    7.0982   -8.4878    0.0000 C   0  0  1  0  0  0  0  0  0  0  0  0
    6.3889   -8.0664    0.0000 C   0  0  1  0  0  0  0  0  0  0  0  0
    7.8181   -8.0781    0.0000 C   0  0  1  0  0  0  0  0  0  0  0  0
    7.8181   -7.2532    0.0000 O   0  0  0  0  0  0  0  0  0  0  0  0
    6.3888   -7.2413    0.0000 C   0  0  1  0  0  0  0  0  0  0  0  0
    7.1088   -6.8317    0.0000 C   0  0  2  0  0  0  0  0  0  0  0  0
    7.0920   -9.3020    0.0000 O   0  0  0  0  0  0  0  0  0  0  0  0
    5.6691   -8.4760    0.0000 O   0  0  0  0  0  0  0  0  0  0  0  0
    5.6797   -6.8199    0.0000 O   0  0  0  0  0  0  0  0  0  0  0  0
    7.1088   -6.0067    0.0000 C   0  0  0  0  0  0  0  0  0  0  0  0
    8.5312   -8.4928    0.0000 O   0  0  0  0  0  0  0  0  0  0  0  0
   10.6747   -8.0805    0.0000 C   0  0  1  0  0  0  0  0  0  0  0  0
    9.9602   -8.4930    0.0000 C   0  0  1  0  0  0  0  0  0  0  0  0
   10.6747   -7.2557    0.0000 O   0  0  0  0  0  0  0  0  0  0  0  0
    9.2458   -8.0805    0.0000 C   0  0  2  0  0  0  0  0  0  0  0  0
    9.9603   -6.8430    0.0000 C   0  0  1  0  0  0  0  0  0  0  0  0
    9.2459   -7.2554    0.0000 C   0  0  2  0  0  0  0  0  0  0  0  0
   11.3892   -8.4931    0.0000 O   0  0  0  0  0  0  0  0  0  0  0  0
    8.5314   -6.8430    0.0000 O   0  0  0  0  0  0  0  0  0  0  0  0
    9.9603   -6.0182    0.0000 C   0  0  0  0  0  0  0  0  0  0  0  0
    9.2460   -5.6056    0.0000 O   0  0  0  0  0  0  0  0  0  0  0  0
   13.5324   -7.2555    0.0000 C   0  0  1  0  0  0  0  0  0  0  0  0
   13.5324   -8.0805    0.0000 C   0  0  1  0  0  0  0  0  0  0  0  0
   12.8180   -6.8431    0.0000 O   0  0  0  0  0  0  0  0  0  0  0  0
   12.8180   -8.4931    0.0000 C   0  0  2  0  0  0  0  0  0  0  0  0
   12.1036   -7.2555    0.0000 C   0  0  1  0  0  0  0  0  0  0  0  0
   12.1036   -8.0805    0.0000 C   0  0  1  0  0  0  0  0  0  0  0  0
   14.2469   -6.8431    0.0000 O   0  0  0  0  0  0  0  0  0  0  0  0
   14.2469   -8.4931    0.0000 N   0  0  0  0  0  0  0  0  0  0  0  0
   12.8180   -9.3180    0.0000 O   0  0  0  0  0  0  0  0  0  0  0  0
   11.3892   -6.8431    0.0000 C   0  0  0  0  0  0  0  0  0  0  0  0
   14.9613   -8.0805    0.0000 C   0  0  0  0  0  0  0  0  0  0  0  0
   15.6759   -8.4931    0.0000 C   0  0  0  0  0  0  0  0  0  0  0  0
   14.9613   -7.2554    0.0000 O   0  0  0  0  0  0  0  0  0  0  0  0
   11.3892   -6.0181    0.0000 O   0  0  0  0  0  0  0  0  0  0  0  0
    9.9602   -9.3180    0.0000 N   0  0  0  0  0  0  0  0  0  0  0  0
    9.2457   -9.7305    0.0000 C   0  0  0  0  0  0  0  0  0  0  0  0
    9.2457  -10.5555    0.0000 O   0  0  0  0  0  0  0  0  0  0  0  0
    8.5312   -9.3180    0.0000 C   0  0  0  0  0  0  0  0  0  0  0  0
   14.9615   -4.7806    0.0000 C   0  0  2  0  0  0  0  0  0  0  0  0
   14.9615   -5.6056    0.0000 C   0  0  1  0  0  0  0  0  0  0  0  0
   14.2469   -4.3681    0.0000 O   0  0  0  0  0  0  0  0  0  0  0  0
   14.2469   -6.0181    0.0000 C   0  0  2  0  0  0  0  0  0  0  0  0
   13.5325   -4.7806    0.0000 C   0  0  1  0  0  0  0  0  0  0  0  0
   13.5325   -5.6056    0.0000 C   0  0  2  0  0  0  0  0  0  0  0  0
   15.6759   -4.3681    0.0000 O   0  0  0  0  0  0  0  0  0  0  0  0
   15.6759   -6.0182    0.0000 O   0  0  0  0  0  0  0  0  0  0  0  0
   12.8180   -6.0181    0.0000 O   0  0  0  0  0  0  0  0  0  0  0  0
   12.8180   -4.3681    0.0000 C   0  0  0  0  0  0  0  0  0  0  0  0
   12.1036   -4.7807    0.0000 O   0  0  0  0  0  0  0  0  0  0  0  0
  2  1  1  0  0  0  0
  3  1  1  0  0  0  0
  1  7  1  1  0  0  0
  5  2  1  0  0  0  0
  2  8  1  6  0  0  0
  4  3  1  0  0  0  0
  6  4  1  0  0  0  0
  5  9  1  6  0  0  0
  6  5  1  0  0  0  0
  6 10  1  6  0  0  0
  3 11  1  1  0  0  0
 12 13  1  0  0  0  0
 12 14  1  0  0  0  0
 13 15  1  0  0  0  0
 14 16  1  0  0  0  0
 15 17  1  0  0  0  0
 16 17  1  0  0  0  0
 15 11  1  1  0  0  0
 17 19  1  1  0  0  0
 16 20  1  1  0  0  0
 21 20  1  0  0  0  0
 22 23  1  0  0  0  0
 22 24  1  0  0  0  0
 23 25  1  0  0  0  0
 24 26  1  0  0  0  0
 25 27  1  0  0  0  0
 26 27  1  0  0  0  0
 22 28  1  1  0  0  0
 23 29  1  6  0  0  0
 25 30  1  1  0  0  0
 27 18  1  6  0  0  0
 26 31  1  1  0  0  0
 29 32  1  0  0  0  0
 32 33  1  0  0  0  0
 32 34  2  0  0  0  0
 31 35  1  0  0  0  0
 12 18  1  1  0  0  0
 13 36  1  6  0  0  0
 38 37  2  0  0  0  0
 39 37  1  0  0  0  0
 36 37  1  0  0  0  0
 40 41  1  0  0  0  0
 40 42  1  0  0  0  0
 41 43  1  0  0  0  0
 42 44  1  0  0  0  0
 43 45  1  0  0  0  0
 44 45  1  0  0  0  0
 40 46  1  6  0  0  0
 41 47  1  6  0  0  0
 43 28  1  1  0  0  0
 45 48  1  1  0  0  0
 44 49  1  1  0  0  0
 50 49  1  0  0  0  0
M  END
> <ID>
CHEBI:61175

> <NAME>
alpha-L-Fucp-(1->3)-beta-D-GalpNAc-(1->4)-beta-D-GlcpNAc-(1->3)-alpha-D-Galp

> <DEFINITION>
An amino tetrasaccharide consisting of α-fucosyl, N-acetyl-β-galactosaminyl, N-acetyl-β-glucosaminyl and α-galactose residues joined in a linear sequence.

> <STAR>
3

> <SYNONYM>
alpha-L-fucosyl-(1->3)-N-acetyl-beta-D-galactosaminyl-(1->4)-N-acetyl-beta-D-glucosaminyl-(1->3)-alpha-D-galactose; alpha-L-Fuc-(1->3)-beta-D-GalNAc-(1->4)-beta-D-GlcNAc-(1->3)-alpha-D-Gal; 6-deoxy-alpha-L-galactopyranosyl-(1->3)-2-acetamido-2-deoxy-beta-D-galactopyranosyl-(1->4)-2-acetamido-2-deoxy-beta-D-glucopyranosyl-(1->3)-alpha-D-galactopyranose

> <IUPAC_NAME>
alpha-L-fucopyranosyl-(1->3)-2-acetamido-2-deoxy-beta-D-galactopyranosyl-(1->4)-2-acetamido-2-deoxy-beta-D-glucopyranosyl-(1->3)-alpha-D-galactopyranose

> <FORMULA>
C28H48N2O20

> <MASS>
732.68210

> <MONOISOTOPIC_MASS>
732.28004

> <CHARGE>
0

> <SMILES>
C[C@@H]1O[C@@H](O[C@H]2[C@@H](O)[C@@H](CO)O[C@@H](O[C@H]3[C@H](O)[C@@H](NC(C)=O)[C@@H](O[C@@H]3CO)O[C@@H]3[C@@H](O)[C@@H](O)O[C@H](CO)[C@@H]3O)[C@@H]2NC(C)=O)[C@@H](O)[C@H](O)[C@@H]1O

> <INCHI>
InChI=1S/C28H48N2O20/c1-7-15(36)19(40)20(41)28(44-7)49-23-14(30-9(3)35)27(46-11(5-32)16(23)37)48-22-12(6-33)47-26(13(18(22)39)29-8(2)34)50-24-17(38)10(4-31)45-25(43)21(24)42/h7,10-28,31-33,36-43H,4-6H2,1-3H3,(H,29,34)(H,30,35)/t7-,10+,11+,12+,13+,14+,15+,16-,17-,18+,19+,20-,21+,22+,23+,24-,25-,26-,27-,28-/m0/s1

> <INCHIKEY>
LGMGAQAGRLHMLD-IBXNGYDMSA-N

> <PUBMED_CITATION>
14990315

$$$$

Marvin  02021117052D          

 50 53  0  0  1  0            999 V2000
    9.2763   -9.3087    0.0000 O   0  0  0  0  0  0  0  0  0  0  0  0
   13.5630  -11.8338    0.0000 O   0  0  0  0  0  0  0  0  0  0  0  0
   11.4198   -8.8963    0.0000 C   0  0  1  0  0  0  0  0  0  0  0  0
   10.7053   -9.3088    0.0000 C   0  0  1  0  0  0  0  0  0  0  0  0
   11.4198   -8.0715    0.0000 O   0  0  0  0  0  0  0  0  0  0  0  0
    9.9909   -8.8963    0.0000 C   0  0  2  0  0  0  0  0  0  0  0  0
   10.7054   -7.6588    0.0000 C   0  0  1  0  0  0  0  0  0  0  0  0
    9.9910   -8.0712    0.0000 C   0  0  2  0  0  0  0  0  0  0  0  0
   12.1342   -9.3090    0.0000 O   0  0  0  0  0  0  0  0  0  0  0  0
    9.2765   -7.6588    0.0000 O   0  0  0  0  0  0  0  0  0  0  0  0
   10.7054   -6.8340    0.0000 C   0  0  0  0  0  0  0  0  0  0  0  0
    9.9910   -6.4214    0.0000 O   0  0  0  0  0  0  0  0  0  0  0  0
   14.2774   -8.0713    0.0000 C   0  0  1  0  0  0  0  0  0  0  0  0
   14.2774   -8.8963    0.0000 C   0  0  1  0  0  0  0  0  0  0  0  0
   13.5630   -7.6590    0.0000 O   0  0  0  0  0  0  0  0  0  0  0  0
   13.5630   -9.3090    0.0000 C   0  0  2  0  0  0  0  0  0  0  0  0
   12.8486   -8.0713    0.0000 C   0  0  1  0  0  0  0  0  0  0  0  0
   12.8486   -8.8963    0.0000 C   0  0  1  0  0  0  0  0  0  0  0  0
   14.9920   -7.6590    0.0000 O   0  0  0  0  0  0  0  0  0  0  0  0
   14.9920   -9.3090    0.0000 N   0  0  0  0  0  0  0  0  0  0  0  0
   13.5630  -10.1338    0.0000 O   0  0  0  0  0  0  0  0  0  0  0  0
   12.1342   -7.6590    0.0000 C   0  0  0  0  0  0  0  0  0  0  0  0
   14.2679  -11.4120    0.0000 C   0  0  1  0  0  0  0  0  0  0  0  0
   14.9848  -11.8338    0.0000 C   0  0  1  0  0  0  0  0  0  0  0  0
   14.2679  -10.5555    0.0000 C   0  0  1  0  0  0  0  0  0  0  0  0
   14.9848  -10.1338    0.0000 O   0  0  0  0  0  0  0  0  0  0  0  0
   15.7018  -11.4120    0.0000 C   0  0  1  0  0  0  0  0  0  0  0  0
   15.7018  -10.5555    0.0000 C   0  0  2  0  0  0  0  0  0  0  0  0
   14.9848  -12.6902    0.0000 O   0  0  0  0  0  0  0  0  0  0  0  0
   16.4188  -11.8338    0.0000 O   0  0  0  0  0  0  0  0  0  0  0  0
   16.4188  -10.1338    0.0000 C   0  0  0  0  0  0  0  0  0  0  0  0
   15.7064   -8.8963    0.0000 C   0  0  0  0  0  0  0  0  0  0  0  0
   16.4210   -9.3090    0.0000 C   0  0  0  0  0  0  0  0  0  0  0  0
   15.7064   -8.0712    0.0000 O   0  0  0  0  0  0  0  0  0  0  0  0
   12.1342   -6.8340    0.0000 O   0  0  0  0  0  0  0  0  0  0  0  0
   10.7053  -10.1338    0.0000 N   0  0  0  0  0  0  0  0  0  0  0  0
    9.9907  -10.5463    0.0000 C   0  0  0  0  0  0  0  0  0  0  0  0
    9.9907  -11.3713    0.0000 O   0  0  0  0  0  0  0  0  0  0  0  0
    9.2763  -10.1338    0.0000 C   0  0  0  0  0  0  0  0  0  0  0  0
   15.7066   -5.5965    0.0000 C   0  0  2  0  0  0  0  0  0  0  0  0
   15.7066   -6.4214    0.0000 C   0  0  1  0  0  0  0  0  0  0  0  0
   14.9920   -5.1840    0.0000 O   0  0  0  0  0  0  0  0  0  0  0  0
   14.9920   -6.8340    0.0000 C   0  0  2  0  0  0  0  0  0  0  0  0
   14.2776   -5.5965    0.0000 C   0  0  1  0  0  0  0  0  0  0  0  0
   14.2776   -6.4214    0.0000 C   0  0  2  0  0  0  0  0  0  0  0  0
   16.4210   -5.1840    0.0000 O   0  0  0  0  0  0  0  0  0  0  0  0
   16.4210   -6.8340    0.0000 O   0  0  0  0  0  0  0  0  0  0  0  0
   13.5630   -6.8340    0.0000 O   0  0  0  0  0  0  0  0  0  0  0  0
   13.5630   -5.1840    0.0000 C   0  0  0  0  0  0  0  0  0  0  0  0
   12.8486   -5.5965    0.0000 O   0  0  0  0  0  0  0  0  0  0  0  0
  3  4  1  0  0  0  0
  3  5  1  0  0  0  0
  4  6  1  0  0  0  0
  5  7  1  0  0  0  0
  6  8  1  0  0  0  0
  7  8  1  0  0  0  0
  6  1  1  1  0  0  0
  8 10  1  1  0  0  0
  7 11  1  1  0  0  0
 12 11  1  0  0  0  0
 13 14  1  0  0  0  0
 13 15  1  0  0  0  0
 14 16  1  0  0  0  0
 15 17  1  0  0  0  0
 16 18  1  0  0  0  0
 17 18  1  0  0  0  0
 13 19  1  1  0  0  0
 14 20  1  6  0  0  0
 16 21  1  1  0  0  0
 18  9  1  6  0  0  0
 17 22  1  1  0  0  0
 24 23  1  0  0  0  0
 25 23  1  0  0  0  0
 23  2  1  6  0  0  0
 27 24  1  0  0  0  0
 24 29  1  1  0  0  0
 26 25  1  0  0  0  0
 25 21  1  6  0  0  0
 28 26  1  0  0  0  0
 27 30  1  1  0  0  0
 28 27  1  0  0  0  0
 28 31  1  1  0  0  0
 20 32  1  0  0  0  0
 32 33  1  0  0  0  0
 32 34  2  0  0  0  0
 22 35  1  0  0  0  0
  3  9  1  1  0  0  0
  4 36  1  6  0  0  0
 38 37  2  0  0  0  0
 39 37  1  0  0  0  0
 36 37  1  0  0  0  0
 40 41  1  0  0  0  0
 40 42  1  0  0  0  0
 41 43  1  0  0  0  0
 42 44  1  0  0  0  0
 43 45  1  0  0  0  0
 44 45  1  0  0  0  0
 40 46  1  6  0  0  0
 41 47  1  6  0  0  0
 43 19  1  1  0  0  0
 45 48  1  1  0  0  0
 44 49  1  1  0  0  0
 50 49  1  0  0  0  0
M  END
> <ID>
CHEBI:61179

> <NAME>
beta-D-GalpNAc-(1->4)-[alpha-L-Fucp-(1->3)]-beta-D-GlcpNAc-(1->3)-alpha-D-Galp

> <DEFINITION>
A branched amino tetrasaccharide comprising α-D-galactose at the reducing end having a N-acetyl-β-D-galactosaminyl-(1→4)-[α-L-fucosyl-(1→3)]-N-acetyl-β-D-glucosaminyl moiety attached at the 3-position.

> <STAR>
3

> <SYNONYM>
N-acetyl-beta-D-galactosaminyl-(1->4)-[alpha-L-fucosyl-(1->3)]-N-acetyl-beta-D-glucosaminyl-(1->3)-alpha-D-galactose; GalNAcbeta1-4(Fucalpha1-3)GlcNAcbeta1-3Galalpha1; beta-D-GalNAc-(1->4)-[alpha-L-Fuc-(1->3)]-beta-D-GlcNAc-(1->3)-alpha-D-Gal; 2-acetamido-2-deoxy-beta-D-galactopyranosyl-(1->4)-[6-deoxy-alpha-L-galactopyranosyl-(1->3)]-2-acetamido-2-deoxy-beta-D-glucopyranosyl-(1->3)-alpha-D-galactopyranose

> <IUPAC_NAME>
2-acetamido-2-deoxy-beta-D-galactopyranosyl-(1->4)-[alpha-L-fucopyranosyl-(1->3)]-2-acetamido-2-deoxy-beta-D-glucopyranosyl-(1->3)-alpha-D-galactopyranose

> <FORMULA>
C28H48N2O20

> <MASS>
732.68210

> <MONOISOTOPIC_MASS>
732.28004

> <CHARGE>
0

> <SMILES>
C[C@@H]1O[C@@H](O[C@@H]2[C@@H](NC(C)=O)[C@@H](O[C@H](CO)[C@H]2O[C@@H]2O[C@H](CO)[C@H](O)[C@H](O)[C@H]2NC(C)=O)O[C@@H]2[C@@H](O)[C@@H](O)O[C@H](CO)[C@@H]2O)[C@@H](O)[C@H](O)[C@@H]1O

> <INCHI>
InChI=1S/C28H48N2O20/c1-7-15(36)19(40)20(41)28(44-7)49-23-14(30-9(3)35)27(50-24-17(38)11(5-32)45-25(43)21(24)42)47-12(6-33)22(23)48-26-13(29-8(2)34)18(39)16(37)10(4-31)46-26/h7,10-28,31-33,36-43H,4-6H2,1-3H3,(H,29,34)(H,30,35)/t7-,10+,11+,12+,13+,14+,15+,16-,17-,18+,19+,20-,21+,22+,23+,24-,25-,26-,27-,28-/m0/s1

> <INCHIKEY>
PRNZDVZVKGXYPQ-IBXNGYDMSA-N

> <PUBMED_CITATION>
14990315

$$$$

Marvin  02031111032D          

 40 42  0  0  1  0            999 V2000
    6.9226   -5.6490    0.0000 O   0  0  0  0  0  0  0  0  0  0  0  0
    9.0660   -5.2366    0.0000 C   0  0  1  0  0  0  0  0  0  0  0  0
    8.3515   -5.6491    0.0000 C   0  0  1  0  0  0  0  0  0  0  0  0
    9.0660   -4.4118    0.0000 O   0  0  0  0  0  0  0  0  0  0  0  0
    7.6371   -5.2366    0.0000 C   0  0  2  0  0  0  0  0  0  0  0  0
    8.3516   -3.9991    0.0000 C   0  0  1  0  0  0  0  0  0  0  0  0
    7.6372   -4.4115    0.0000 C   0  0  2  0  0  0  0  0  0  0  0  0
    9.7804   -5.6493    0.0000 O   0  0  0  0  0  0  0  0  0  0  0  0
    6.9227   -3.9991    0.0000 O   0  0  0  0  0  0  0  0  0  0  0  0
    8.3516   -3.1743    0.0000 C   0  0  0  0  0  0  0  0  0  0  0  0
    7.6372   -2.7617    0.0000 O   0  0  0  0  0  0  0  0  0  0  0  0
   11.9236   -4.4116    0.0000 C   0  0  1  0  0  0  0  0  0  0  0  0
   11.9236   -5.2366    0.0000 C   0  0  1  0  0  0  0  0  0  0  0  0
   11.2092   -3.9993    0.0000 O   0  0  0  0  0  0  0  0  0  0  0  0
   11.2092   -5.6493    0.0000 C   0  0  2  0  0  0  0  0  0  0  0  0
   10.4948   -4.4116    0.0000 C   0  0  1  0  0  0  0  0  0  0  0  0
   10.4948   -5.2366    0.0000 C   0  0  1  0  0  0  0  0  0  0  0  0
   12.6383   -3.9993    0.0000 O   0  0  0  0  0  0  0  0  0  0  0  0
   12.6383   -5.6493    0.0000 N   0  0  0  0  0  0  0  0  0  0  0  0
   11.2092   -6.4741    0.0000 O   0  0  0  0  0  0  0  0  0  0  0  0
    9.7804   -3.9993    0.0000 C   0  0  0  0  0  0  0  0  0  0  0  0
   13.3527   -5.2366    0.0000 C   0  0  0  0  0  0  0  0  0  0  0  0
   14.0672   -5.6493    0.0000 C   0  0  0  0  0  0  0  0  0  0  0  0
   13.3527   -4.4115    0.0000 O   0  0  0  0  0  0  0  0  0  0  0  0
    9.7804   -3.1743    0.0000 O   0  0  0  0  0  0  0  0  0  0  0  0
    8.3515   -6.4741    0.0000 N   0  0  0  0  0  0  0  0  0  0  0  0
    7.6370   -6.8866    0.0000 C   0  0  0  0  0  0  0  0  0  0  0  0
    7.6370   -7.7116    0.0000 O   0  0  0  0  0  0  0  0  0  0  0  0
    6.9226   -6.4741    0.0000 C   0  0  0  0  0  0  0  0  0  0  0  0
   13.3528   -1.9368    0.0000 C   0  0  2  0  0  0  0  0  0  0  0  0
   13.3528   -2.7617    0.0000 C   0  0  1  0  0  0  0  0  0  0  0  0
   12.6383   -1.5243    0.0000 O   0  0  0  0  0  0  0  0  0  0  0  0
   12.6383   -3.1743    0.0000 C   0  0  2  0  0  0  0  0  0  0  0  0
   11.9239   -1.9368    0.0000 C   0  0  1  0  0  0  0  0  0  0  0  0
   11.9239   -2.7617    0.0000 C   0  0  2  0  0  0  0  0  0  0  0  0
   14.0672   -1.5243    0.0000 O   0  0  0  0  0  0  0  0  0  0  0  0
   14.0672   -3.1743    0.0000 O   0  0  0  0  0  0  0  0  0  0  0  0
   11.2092   -3.1743    0.0000 O   0  0  0  0  0  0  0  0  0  0  0  0
   11.2092   -1.5243    0.0000 C   0  0  0  0  0  0  0  0  0  0  0  0
   10.4948   -1.9368    0.0000 O   0  0  0  0  0  0  0  0  0  0  0  0
  2  3  1  0  0  0  0
  2  4  1  0  0  0  0
  3  5  1  0  0  0  0
  4  6  1  0  0  0  0
  5  7  1  0  0  0  0
  6  7  1  0  0  0  0
  5  1  1  1  0  0  0
  7  9  1  1  0  0  0
  6 10  1  1  0  0  0
 11 10  1  0  0  0  0
 12 13  1  0  0  0  0
 12 14  1  0  0  0  0
 13 15  1  0  0  0  0
 14 16  1  0  0  0  0
 15 17  1  0  0  0  0
 16 17  1  0  0  0  0
 12 18  1  1  0  0  0
 13 19  1  6  0  0  0
 15 20  1  1  0  0  0
 17  8  1  6  0  0  0
 16 21  1  1  0  0  0
 19 22  1  0  0  0  0
 22 23  1  0  0  0  0
 22 24  2  0  0  0  0
 21 25  1  0  0  0  0
  2  8  1  1  0  0  0
  3 26  1  6  0  0  0
 28 27  2  0  0  0  0
 29 27  1  0  0  0  0
 26 27  1  0  0  0  0
 30 31  1  0  0  0  0
 30 32  1  0  0  0  0
 31 33  1  0  0  0  0
 32 34  1  0  0  0  0
 33 35  1  0  0  0  0
 34 35  1  0  0  0  0
 30 36  1  6  0  0  0
 31 37  1  6  0  0  0
 33 18  1  1  0  0  0
 35 38  1  1  0  0  0
 34 39  1  1  0  0  0
 40 39  1  0  0  0  0
M  END
> <ID>
CHEBI:61187

> <NAME>
beta-D-GalpNAc-(1->4)-beta-D-GlcpNAc-(1->3)-alpha-D-Galp

> <DEFINITION>
A linear amino trisaccharide comprising α-D-galactose at the reducing end having a N-acetyl-β-D-galactosaminyl-(1→4)-N-acetyl-β-D-glucosaminyl moiety attached at the 3-position.

> <STAR>
3

> <SYNONYM>
N-acetyl-beta-D-galactosaminyl-(1->4)-N-acetyl-beta-D-glucosaminyl-(1->3)-alpha-D-galactose; GalNAcbeta1-4GlcNAcbeta1-3Galalpha1; beta-D-GalNAc-(1->4)-beta-D-GlcNAc-(1->3)-alpha-D-Gal; 2-acetamido-2-deoxy-beta-D-galactosyl-(1->4)-2-acetamido-2-deoxy-beta-D-glucosyl-(1->3)-alpha-D-galactose

> <IUPAC_NAME>
2-acetamido-2-deoxy-beta-D-galactopyranosyl-(1->4)-2-acetamido-2-deoxy-beta-D-glucopyranosyl-(1->3)-alpha-D-galactopyranose

> <FORMULA>
C22H38N2O16

> <MASS>
586.54090

> <MONOISOTOPIC_MASS>
586.22213

> <CHARGE>
0

> <SMILES>
CC(=O)N[C@@H]1[C@@H](O)[C@@H](O)[C@@H](CO)O[C@H]1O[C@H]1[C@H](O)[C@@H](NC(C)=O)[C@@H](O[C@@H]1CO)O[C@@H]1[C@@H](O)[C@@H](O)O[C@H](CO)[C@@H]1O

> <INCHI>
InChI=1S/C22H38N2O16/c1-6(28)23-11-15(32)13(30)8(3-25)37-21(11)39-18-10(5-27)38-22(12(16(18)33)24-7(2)29)40-19-14(31)9(4-26)36-20(35)17(19)34/h8-22,25-27,30-35H,3-5H2,1-2H3,(H,23,28)(H,24,29)/t8-,9-,10-,11-,12-,13+,14+,15-,16-,17-,18-,19+,20+,21+,22+/m1/s1

> <INCHIKEY>
KOYFXYSQFXWFEU-AKLOTRNASA-N

> <PUBMED_CITATION>
14990315

$$$$

Marvin  02031111472D          

 49 52  0  0  1  0            999 V2000
   18.1141  -12.6395    0.0000 C   0  0  1  0  0  0  0  0  0  0  0  0
   17.3971  -13.0475    0.0000 C   0  0  1  0  0  0  0  0  0  0  0  0
   18.1141  -11.8112    0.0000 C   0  0  1  0  0  0  0  0  0  0  0  0
   17.3971  -11.4033    0.0000 O   0  0  0  0  0  0  0  0  0  0  0  0
   16.6799  -12.6395    0.0000 C   0  0  1  0  0  0  0  0  0  0  0  0
   16.6799  -11.8112    0.0000 C   0  0  2  0  0  0  0  0  0  0  0  0
   18.8187  -13.0475    0.0000 O   0  0  0  0  0  0  0  0  0  0  0  0
   17.3971  -13.8757    0.0000 O   0  0  0  0  0  0  0  0  0  0  0  0
   15.9630  -13.0475    0.0000 O   0  0  0  0  0  0  0  0  0  0  0  0
   15.9630  -11.4033    0.0000 C   0  0  0  0  0  0  0  0  0  0  0  0
   18.8273  -11.3965    0.0000 O   0  0  0  0  0  0  0  0  0  0  0  0
   16.6840   -8.4590    0.0000 C   0  0  1  0  0  0  0  0  0  0  0  0
   15.9695   -8.8715    0.0000 C   0  0  1  0  0  0  0  0  0  0  0  0
   16.6840   -7.6343    0.0000 O   0  0  0  0  0  0  0  0  0  0  0  0
   15.2551   -8.4590    0.0000 C   0  0  2  0  0  0  0  0  0  0  0  0
   15.9696   -7.2217    0.0000 C   0  0  1  0  0  0  0  0  0  0  0  0
   15.2552   -7.6340    0.0000 C   0  0  2  0  0  0  0  0  0  0  0  0
   17.3986   -8.8716    0.0000 O   0  0  0  0  0  0  0  0  0  0  0  0
   14.5406   -8.8714    0.0000 O   0  0  0  0  0  0  0  0  0  0  0  0
   14.5409   -7.2217    0.0000 O   0  0  0  0  0  0  0  0  0  0  0  0
   15.9696   -6.3968    0.0000 C   0  0  0  0  0  0  0  0  0  0  0  0
   15.2554   -5.9842    0.0000 O   0  0  0  0  0  0  0  0  0  0  0  0
   19.5416   -7.6341    0.0000 C   0  0  0  0  0  0  0  0  0  0  0  0
   19.5416   -8.4590    0.0000 C   0  0  1  0  0  0  0  0  0  0  0  0
   18.8273   -7.2217    0.0000 O   0  0  0  0  0  0  0  0  0  0  0  0
   18.8273   -8.8716    0.0000 C   0  0  2  0  0  0  0  0  0  0  0  0
   18.1128   -7.6341    0.0000 C   0  0  1  0  0  0  0  0  0  0  0  0
   18.1128   -8.4590    0.0000 C   0  0  1  0  0  0  0  0  0  0  0  0
   20.2562   -7.2217    0.0000 O   0  0  0  0  0  0  0  0  0  0  0  0
   20.2562   -8.8716    0.0000 N   0  0  0  0  0  0  0  0  0  0  0  0
   18.8273   -9.6965    0.0000 O   0  0  0  0  0  0  0  0  0  0  0  0
   17.3986   -7.2217    0.0000 C   0  0  0  0  0  0  0  0  0  0  0  0
   19.5320  -10.9745    0.0000 C   0  0  1  0  0  0  0  0  0  0  0  0
   20.2490  -11.3965    0.0000 C   0  0  1  0  0  0  0  0  0  0  0  0
   19.5320  -10.1182    0.0000 C   0  0  1  0  0  0  0  0  0  0  0  0
   20.2490   -9.6965    0.0000 O   0  0  0  0  0  0  0  0  0  0  0  0
   20.9660  -10.9745    0.0000 C   0  0  1  0  0  0  0  0  0  0  0  0
   20.9660  -10.1182    0.0000 C   0  0  2  0  0  0  0  0  0  0  0  0
   20.2490  -12.2528    0.0000 O   0  0  0  0  0  0  0  0  0  0  0  0
   21.6828  -11.3965    0.0000 O   0  0  0  0  0  0  0  0  0  0  0  0
   21.6828   -9.6965    0.0000 C   0  0  0  0  0  0  0  0  0  0  0  0
   20.9706   -8.4590    0.0000 C   0  0  0  0  0  0  0  0  0  0  0  0
   21.6850   -8.8716    0.0000 C   0  0  0  0  0  0  0  0  0  0  0  0
   20.9706   -7.6340    0.0000 O   0  0  0  0  0  0  0  0  0  0  0  0
   17.3986   -6.3967    0.0000 O   0  0  0  0  0  0  0  0  0  0  0  0
   15.9695   -9.6965    0.0000 N   0  0  0  0  0  0  0  0  0  0  0  0
   15.2551  -10.1089    0.0000 C   0  0  0  0  0  0  0  0  0  0  0  0
   15.2550  -10.9340    0.0000 O   0  0  0  0  0  0  0  0  0  0  0  0
   14.5406   -9.6965    0.0000 C   0  0  0  0  0  0  0  0  0  0  0  0
  2  1  1  0  0  0  0
  3  1  1  0  0  0  0
  1  7  1  1  0  0  0
  5  2  1  0  0  0  0
  2  8  1  6  0  0  0
  4  3  1  0  0  0  0
  6  4  1  0  0  0  0
  5  9  1  6  0  0  0
  6  5  1  0  0  0  0
  6 10  1  6  0  0  0
  3 11  1  1  0  0  0
 12 13  1  0  0  0  0
 12 14  1  0  0  0  0
 13 15  1  0  0  0  0
 14 16  1  0  0  0  0
 15 17  1  0  0  0  0
 16 17  1  0  0  0  0
 15 19  1  1  0  0  0
 17 20  1  1  0  0  0
 16 21  1  1  0  0  0
 22 21  1  0  0  0  0
 23 24  1  0  0  0  0
 23 25  1  0  0  0  0
 24 26  1  0  0  0  0
 25 27  1  0  0  0  0
 26 28  1  0  0  0  0
 27 28  1  0  0  0  0
 23 29  1  0  0  0  0
 24 30  1  6  0  0  0
 26 31  1  1  0  0  0
 28 18  1  6  0  0  0
 27 32  1  1  0  0  0
 34 33  1  0  0  0  0
 35 33  1  0  0  0  0
 33 11  1  6  0  0  0
 37 34  1  0  0  0  0
 34 39  1  1  0  0  0
 36 35  1  0  0  0  0
 35 31  1  6  0  0  0
 38 36  1  0  0  0  0
 37 40  1  1  0  0  0
 38 37  1  0  0  0  0
 38 41  1  1  0  0  0
 30 42  1  0  0  0  0
 42 43  1  0  0  0  0
 42 44  2  0  0  0  0
 32 45  1  0  0  0  0
 12 18  1  1  0  0  0
 13 46  1  6  0  0  0
 48 47  2  0  0  0  0
 49 47  1  0  0  0  0
 46 47  1  0  0  0  0
M  END
> <ID>
CHEBI:61189

> <NAME>
beta-D-GalpNAc-(1->4)-[alpha-L-Fucp-(1->2)-alpha-L-Fucp-(1->3)]-D-GlcpNAc

> <DEFINITION>
A branched amino tetrasaccharide consisting of N-acetyl-glucosamine at the reducing end with an α-fucosyl-(1→2)-α-fucosyl group attached at the 3-position and an N-acetyl-β-glucosaminyl residue attached at the 4-position.

> <STAR>
3

> <SYNONYM>
N-acetyl-beta-D-galactosaminyl-(1->4)-[alpha-L-fucopyranosyl-(1->2)-alpha-L-fucopyranosyl-(1->3)]-N-acetyl-D-glucosamine; LDN-DF; GalNAcbeta1-4(Fucalpha1-2Fucalpha1-3)GlcNAc; GalNAc(beta1-4)[Fuc(alpha1-2)Fuc(alpha1-3)]GlcNAc; beta-D-GalNAc-(1->4)-[alpha-L-Fuc-(1->2)-alpha-L-Fuc-(1->3)]-D-GlcNAc; 2-acetamido-2-deoxy-beta-D-galactopyranosyl-(1->4)-[6-deoxy-alpha-L-galactopyranosyl-(1->2)-6-deoxy-alpha-L-galactopyranosyl-(1->3)]-2-acetamido-2-deoxy-D-glucopyranose

> <IUPAC_NAME>
2-acetamido-2-deoxy-beta-D-galactopyranosyl-(1->4)-[alpha-L-fucopyranosyl-(1->2)-alpha-L-fucopyranosyl-(1->3)]-2-acetamido-2-deoxy-D-glucopyranose

> <FORMULA>
C28H48N2O19

> <MASS>
716.68270

> <MONOISOTOPIC_MASS>
716.28513

> <CHARGE>
0

> <SMILES>
C[C@@H]1O[C@@H](O[C@H]2[C@H](O)[C@H](O)[C@H](C)O[C@H]2O[C@@H]2[C@@H](NC(C)=O)C(O)O[C@H](CO)[C@H]2O[C@@H]2O[C@H](CO)[C@H](O)[C@H](O)[C@H]2NC(C)=O)[C@@H](O)[C@H](O)[C@@H]1O

> <INCHI>
InChI=1S/C28H48N2O19/c1-7-15(35)19(39)21(41)27(43-7)49-24-20(40)16(36)8(2)44-28(24)48-23-14(30-10(4)34)25(42)45-12(6-32)22(23)47-26-13(29-9(3)33)18(38)17(37)11(5-31)46-26/h7-8,11-28,31-32,35-42H,5-6H2,1-4H3,(H,29,33)(H,30,34)/t7-,8-,11+,12+,13+,14+,15+,16+,17-,18+,19+,20+,21-,22+,23+,24-,25?,26-,27-,28-/m0/s1

> <INCHIKEY>
YRVBJXGKYIQPJT-SIMWWNMBSA-N

> <KEGG_GLYCAN_ACCESSION>
G11188

> <PUBMED_CITATION>
11254599; 14500488; 22241826

$$$$

Marvin  02031112202D          

 29 30  0  0  1  0            999 V2000
    7.9942   -7.0929    0.0000 O   0  0  0  0  0  0  0  0  0  0  0  0
    8.7088   -5.0303    0.0000 C   0  0  1  0  0  0  0  0  0  0  0  0
    8.7088   -5.8553    0.0000 C   0  0  1  0  0  0  0  0  0  0  0  0
    7.9945   -4.6180    0.0000 O   0  0  0  0  0  0  0  0  0  0  0  0
    7.9944   -6.2678    0.0000 C   0  0  2  0  0  0  0  0  0  0  0  0
    7.2798   -5.0303    0.0000 C   0  0  1  0  0  0  0  0  0  0  0  0
    7.2798   -5.8552    0.0000 C   0  0  2  0  0  0  0  0  0  0  0  0
    6.5654   -6.2678    0.0000 O   0  0  0  0  0  0  0  0  0  0  0  0
    6.5656   -4.6179    0.0000 C   0  0  0  0  0  0  0  0  0  0  0  0
    5.8510   -5.0303    0.0000 O   0  0  0  0  0  0  0  0  0  0  0  0
    9.4232   -6.2678    0.0000 N   0  0  0  0  0  0  0  0  0  0  0  0
    9.4232   -7.0930    0.0000 C   0  0  0  0  0  0  0  0  0  0  0  0
   10.1377   -7.5055    0.0000 O   0  0  0  0  0  0  0  0  0  0  0  0
    8.7088   -7.5054    0.0000 C   0  0  0  0  0  0  0  0  0  0  0  0
    9.4232   -4.6178    0.0000 O   0  0  0  0  0  0  0  0  0  0  0  0
   11.5664   -3.3801    0.0000 C   0  0  0  0  0  0  0  0  0  0  0  0
   11.5664   -4.2051    0.0000 C   0  0  1  0  0  0  0  0  0  0  0  0
   10.8520   -2.9678    0.0000 O   0  0  0  0  0  0  0  0  0  0  0  0
   10.8520   -4.6178    0.0000 C   0  0  2  0  0  0  0  0  0  0  0  0
   10.1376   -3.3801    0.0000 C   0  0  1  0  0  0  0  0  0  0  0  0
   10.1376   -4.2051    0.0000 C   0  0  1  0  0  0  0  0  0  0  0  0
   12.2810   -2.9678    0.0000 O   0  0  0  0  0  0  0  0  0  0  0  0
   12.2810   -4.6178    0.0000 N   0  0  0  0  0  0  0  0  0  0  0  0
   10.8520   -5.4426    0.0000 O   0  0  0  0  0  0  0  0  0  0  0  0
    9.4232   -2.9678    0.0000 C   0  0  0  0  0  0  0  0  0  0  0  0
   12.2806   -5.4429    0.0000 C   0  0  0  0  0  0  0  0  0  0  0  0
   12.9952   -5.8556    0.0000 C   0  0  0  0  0  0  0  0  0  0  0  0
   11.5659   -5.8552    0.0000 O   0  0  0  0  0  0  0  0  0  0  0  0
    9.4232   -2.1428    0.0000 O   0  0  0  0  0  0  0  0  0  0  0  0
  2  3  1  0  0  0  0
  2  4  1  0  0  0  0
  3  5  1  0  0  0  0
  4  6  1  0  0  0  0
  5  7  1  0  0  0  0
  6  7  1  0  0  0  0
  5  1  1  1  0  0  0
  7  8  1  1  0  0  0
  6  9  1  1  0  0  0
 10  9  1  0  0  0  0
  3 11  1  6  0  0  0
 13 12  2  0  0  0  0
 14 12  1  0  0  0  0
 11 12  1  0  0  0  0
  2 15  1  1  0  0  0
 16 17  1  0  0  0  0
 16 18  1  0  0  0  0
 17 19  1  0  0  0  0
 18 20  1  0  0  0  0
 19 21  1  0  0  0  0
 20 21  1  0  0  0  0
 16 22  1  0  0  0  0
 17 23  1  6  0  0  0
 19 24  1  1  0  0  0
 21 15  1  6  0  0  0
 20 25  1  1  0  0  0
 23 26  1  0  0  0  0
 26 27  1  0  0  0  0
 26 28  2  0  0  0  0
 25 29  1  0  0  0  0
M  END
> <ID>
CHEBI:61190

> <NAME>
beta-D-GalpNAc-(1->4)-D-GlcpNAc

> <DEFINITION>
An amino disaccharide consisting of N-acetylglucosamine having an N-acetylgalactosaminyl resiude attached at the 4-position via a β-linkage.

> <STAR>
3

> <SYNONYM>
LacdiNAc; GalNAcbeta1-4GlcNAc; beta-D-GaNAc-(1->4)-D-GlcNAc; 2-acetamido-4-O-(2-acetamido-2-deoxy-beta-D-galactopyranosyl)-2-deoxy-D-glucopyranose; (GalNAc)1 (GlcNAc)1

> <IUPAC_NAME>
beta-D-2-acetamido-2-deoxy-galactopyranosyl-(1->4)-D-2-acetamido-2-deoxy-glucopyranose

> <FORMULA>
C16H28N2O11

> <MASS>
424.40030

> <MONOISOTOPIC_MASS>
424.16931

> <CHARGE>
0

> <SMILES>
CC(=O)N[C@H]1C(O)O[C@H](CO)[C@@H](O[C@@H]2O[C@H](CO)[C@H](O)[C@H](O)[C@H]2NC(C)=O)[C@@H]1O

> <INCHI>
InChI=1S/C16H28N2O11/c1-5(21)17-9-13(25)14(8(4-20)27-15(9)26)29-16-10(18-6(2)22)12(24)11(23)7(3-19)28-16/h7-16,19-20,23-26H,3-4H2,1-2H3,(H,17,21)(H,18,22)/t7-,8-,9-,10-,11+,12-,13-,14-,15?,16+/m1/s1

> <INCHIKEY>
CDOJPCSDOXYJJF-CAQKAZPESA-N

> <REAXYS_REGISTRY_NUMBER>
9450003

> <KEGG_GLYCAN_ACCESSION>
G00690

> <PUBMED_CITATION>
11254599; 12681926; 12932753; 22241826

$$$$

Marvin  02041111152D          

 30 31  0  0  1  0            999 V2000
   10.0954   -6.9822    0.0000 O   0  0  0  0  0  0  0  0  0  0  0  0
   10.8100   -4.9196    0.0000 C   0  0  1  0  0  0  0  0  0  0  0  0
   10.8100   -5.7446    0.0000 C   0  0  1  0  0  0  0  0  0  0  0  0
   10.0957   -4.5073    0.0000 O   0  0  0  0  0  0  0  0  0  0  0  0
   10.0956   -6.1571    0.0000 C   0  0  2  0  0  0  0  0  0  0  0  0
    9.3810   -4.9196    0.0000 C   0  0  1  0  0  0  0  0  0  0  0  0
    9.3810   -5.7445    0.0000 C   0  0  2  0  0  0  0  0  0  0  0  0
    8.6666   -6.1571    0.0000 O   0  0  0  0  0  0  0  0  0  0  0  0
    8.6668   -4.5072    0.0000 C   0  0  0  0  0  0  0  0  0  0  0  0
    7.9522   -4.9196    0.0000 O   0  0  0  0  0  0  0  0  0  0  0  0
   11.5244   -6.1571    0.0000 N   0  0  0  0  0  0  0  0  0  0  0  0
   11.5244   -6.9823    0.0000 C   0  0  0  0  0  0  0  0  0  0  0  0
   12.2389   -7.3948    0.0000 O   0  0  0  0  0  0  0  0  0  0  0  0
   10.8100   -7.3947    0.0000 C   0  0  0  0  0  0  0  0  0  0  0  0
   11.5244   -4.5071    0.0000 O   0  0  0  0  0  0  0  0  0  0  0  0
    9.3809   -7.3948    0.0000 C   0  0  1  0  0  0  0  0  0  0  0  0
    9.3809   -8.2198    0.0000 C   0  0  2  0  0  0  0  0  0  0  0  0
    8.6665   -6.9822    0.0000 O   0  0  0  0  0  0  0  0  0  0  0  0
    8.6665   -8.6321    0.0000 C   0  0  0  0  0  0  0  0  0  0  0  0
    7.9520   -7.3948    0.0000 C   0  0  1  0  0  0  0  0  0  0  0  0
    7.9520   -8.2198    0.0000 C   0  0  1  0  0  0  0  0  0  0  0  0
   10.0954   -8.6321    0.0000 O   0  0  0  0  0  0  0  0  0  0  0  0
    7.2375   -8.6321    0.0000 O   0  0  0  0  0  0  0  0  0  0  0  0
    7.2375   -6.9822    0.0000 C   0  0  0  0  0  0  0  0  0  0  0  0
   12.2388   -4.9196    0.0000 C   0  0  0  0  0  0  0  0  0  0  0  0
   12.9533   -4.5070    0.0000 C   0  0  0  0  0  0  0  0  0  0  0  0
   13.6678   -4.9195    0.0000 Si  0  0  0  0  0  0  0  0  0  0  0  0
   13.6678   -5.7445    0.0000 C   0  0  0  0  0  0  0  0  0  0  0  0
   14.3823   -4.5070    0.0000 C   0  0  0  0  0  0  0  0  0  0  0  0
   14.3823   -5.3320    0.0000 C   0  0  0  0  0  0  0  0  0  0  0  0
  2  3  1  0  0  0  0
  2  4  1  0  0  0  0
  3  5  1  0  0  0  0
  4  6  1  0  0  0  0
  5  7  1  0  0  0  0
  6  7  1  0  0  0  0
  5  1  1  1  0  0  0
  7  8  1  1  0  0  0
  6  9  1  1  0  0  0
 10  9  1  0  0  0  0
  3 11  1  6  0  0  0
 13 12  2  0  0  0  0
 14 12  1  0  0  0  0
 11 12  1  0  0  0  0
  2 15  1  1  0  0  0
 16 17  1  0  0  0  0
 16 18  1  0  0  0  0
 17 19  1  0  0  0  0
 18 20  1  0  0  0  0
 19 21  1  0  0  0  0
 20 21  1  0  0  0  0
 16  1  1  1  0  0  0
 17 22  1  1  0  0  0
 21 23  1  6  0  0  0
 20 24  1  1  0  0  0
 15 25  1  0  0  0  0
 25 26  1  0  0  0  0
 26 27  1  0  0  0  0
 27 28  1  0  0  0  0
 27 29  1  0  0  0  0
 27 30  1  0  0  0  0
M  END
> <ID>
CHEBI:61210

> <NAME>
beta-D-Tyvp-(1->3)-beta-D-GalpNAc-OCH2CH2SiMe3

> <DEFINITION>
An amino disaccharide consisting of 2-(trimethylsilyl)ethyl N-acetyl-β-D-galactosaminide having a β-D-tyvelosyl residue attached at the 3-position.

> <STAR>
3

> <SYNONYM>
beta-D-Tyvp-(1->3)-beta-D-GalpNAc-OCH2CH2TMS; beta-D-Tyv-(1->3)-beta-D-GalNAc-OCH2CH2TMS; beta-D-Tyv-(1->3)-beta-D-GalNAc-OCH2CH2SiMe3; 2-(trimethylsilyl)ethyl beta-D-tyvelosyl-(1->3)-N-acetyl-beta-D-galactosaminide; 2-(trimethylsilyl)ethyl beta-D-tyvelopyranosyl-(1->3)-2-acetamido-2-deoxy-beta-D-galactopyranoside; 2-(trimethylsilyl)ethyl 2-acetamido-2-deoxy-3-O-(beta-D-tyvelopyranosyl)-beta-D-galactopyranoside; 2-(trimethylsilyl)ethyl 2-acetamido-2-deoxy-3-O-(3,6-dideoxy-beta-D-arabino-hexopyranosyl)-beta-D-galactopyranoside

> <IUPAC_NAME>
2-(trimethylsilyl)ethyl 3,6-dideoxy-beta-D-arabino-hexopyranosyl-(1->3)-2-acetamido-2-deoxy-beta-D-galactopyranoside

> <FORMULA>
C19H37NO9Si

> <MASS>
451.58390

> <MONOISOTOPIC_MASS>
451.22376

> <CHARGE>
0

> <SMILES>
C[C@H]1O[C@@H](O[C@H]2[C@@H](O)[C@@H](CO)O[C@@H](OCC[Si](C)(C)C)[C@@H]2NC(C)=O)[C@@H](O)C[C@@H]1O

> <INCHI>
InChI=1S/C19H37NO9Si/c1-10-12(23)8-13(24)18(27-10)29-17-15(20-11(2)22)19(26-6-7-30(3,4)5)28-14(9-21)16(17)25/h10,12-19,21,23-25H,6-9H2,1-5H3,(H,20,22)/t10-,12+,13+,14-,15-,16+,17-,18+,19-/m1/s1

> <INCHIKEY>
BWDSPSKBPKSWSH-GZDWCXAZSA-N

> <REAXYS_REGISTRY_NUMBER>
7752763

> <PUBMED_CITATION>
9008846; 9147047

$$$$

Marvin  02071112092D          

 26 27  0  0  1  0            999 V2000
   10.3161   -7.2697    0.0000 C   0  0  2  0  0  0  0  0  0  0  0  0
   10.3161   -8.0948    0.0000 C   0  0  1  0  0  0  0  0  0  0  0  0
   11.0288   -8.5011    0.0000 C   0  0  1  0  0  0  0  0  0  0  0  0
   11.7413   -8.0948    0.0000 C   0  0  2  0  0  0  0  0  0  0  0  0
   11.7413   -7.2697    0.0000 C   0  0  1  0  0  0  0  0  0  0  0  0
   11.0288   -6.8510    0.0000 O   0  0  0  0  0  0  0  0  0  0  0  0
   12.4535   -6.8572    0.0000 O   0  0  0  0  0  0  0  0  0  0  0  0
   12.4517   -8.5063    0.0000 O   0  0  0  0  0  0  0  0  0  0  0  0
   11.0288   -9.3262    0.0000 O   0  0  0  0  0  0  0  0  0  0  0  0
    9.6016   -8.5063    0.0000 O   0  0  0  0  0  0  0  0  0  0  0  0
    9.5998   -6.8572    0.0000 C   0  0  0  0  0  0  0  0  0  0  0  0
    9.5974   -6.0322    0.0000 O   0  0  0  0  0  0  0  0  0  0  0  0
   11.7450   -4.8008    0.0000 C   0  0  2  0  0  0  0  0  0  0  0  0
   11.7450   -5.6258    0.0000 C   0  0  2  0  0  0  0  0  0  0  0  0
   12.4535   -6.0322    0.0000 C   0  0  1  0  0  0  0  0  0  0  0  0
   13.1662   -5.6258    0.0000 C   0  0  2  0  0  0  0  0  0  0  0  0
   13.1662   -4.8008    0.0000 C   0  0  1  0  0  0  0  0  0  0  0  0
   12.4535   -4.3821    0.0000 O   0  0  0  0  0  0  0  0  0  0  0  0
   13.8824   -4.3882    0.0000 O   0  0  0  0  0  0  0  0  0  0  0  0
   11.0288   -4.3882    0.0000 C   0  0  0  0  0  0  0  0  0  0  0  0
   11.0263   -3.5631    0.0000 O   0  0  0  0  0  0  0  0  0  0  0  0
   13.8806   -6.0373    0.0000 N   0  0  0  0  0  0  0  0  0  0  0  0
   11.0306   -6.0373    0.0000 O   0  0  0  0  0  0  0  0  0  0  0  0
   13.8794   -6.8623    0.0000 C   0  0  0  0  0  0  0  0  0  0  0  0
   14.5940   -7.2780    0.0000 C   0  0  0  0  0  0  0  0  0  0  0  0
   13.1638   -7.2760    0.0000 O   0  0  0  0  0  0  0  0  0  0  0  0
  5  7  1  1  0  0  0
  2  1  1  0  0  0  0
  4  8  1  6  0  0  0
  1  6  1  0  0  0  0
 13 18  1  0  0  0  0
 14 15  1  0  0  0  0
 15 16  1  0  0  0  0
 16 17  1  0  0  0  0
 17 18  1  0  0  0  0
  3  9  1  1  0  0  0
 17 19  1  1  0  0  0
 15  7  1  1  0  0  0
  3  2  1  0  0  0  0
 13 20  1  1  0  0  0
  2 10  1  1  0  0  0
 20 21  1  0  0  0  0
  4  3  1  0  0  0  0
 16 22  1  6  0  0  0
  1 11  1  1  0  0  0
 14 23  1  6  0  0  0
  5  4  1  0  0  0  0
 22 24  1  0  0  0  0
 11 12  1  0  0  0  0
 24 25  1  0  0  0  0
 13 14  1  0  0  0  0
 24 26  2  0  0  0  0
  5  6  1  0  0  0  0
M  END
> <ID>
CHEBI:61246

> <NAME>
beta-D-Galp-(1->3)-beta-D-GlcpNAc

> <DEFINITION>
An amino disaccharide consisting of β-D-galactose linked via a (1→3)-glycosidic bond to N-acetyl-β-D-glucosamine. β-D-Galp-(1→3)-β-D-GlcpNAc in which the configuration at the reducing-end anomeric centre is β.

> <STAR>
3

> <SYNONYM>
Le(c); Galbeta1-3GIcNAcbeta; Galb1-3GlcNAcb; betaGal(1-3)betaGIcNAc; beta-D-galactosyl-(1->3)-N-acetyl-beta-D-glucose; beta-D-Gal-(1->3)-beta-D-GlcNAc; 2-acetamido-2-deoxy-3-O-beta-D-galactopyranosyl-beta-D-glucopyranose

> <IUPAC_NAME>
beta-D-galactopyranosyl-(1->3)-2-acetamido-2-deoxy-beta-D-glucopyranose

> <FORMULA>
C14H25NO11

> <MASS>
383.34840

> <MONOISOTOPIC_MASS>
383.14276

> <CHARGE>
0

> <SMILES>
CC(=O)N[C@H]1[C@H](O)O[C@H](CO)[C@@H](O)[C@@H]1O[C@@H]1O[C@H](CO)[C@H](O)[C@H](O)[C@H]1O

> <INCHI>
InChI=1S/C14H25NO11/c1-4(18)15-7-12(9(20)6(3-17)24-13(7)23)26-14-11(22)10(21)8(19)5(2-16)25-14/h5-14,16-17,19-23H,2-3H2,1H3,(H,15,18)/t5-,6-,7-,8+,9-,10+,11-,12-,13-,14+/m1/s1

> <INCHIKEY>
HMQPEDMEOBLSQB-LODBTCKLSA-N

> <REAXYS_REGISTRY_NUMBER>
5772780

> <PUBMED_CITATION>
1609521; 19443021; 2327739; 2457603; 25568069; 31537530; 9871535

$$$$

Marvin  02071114492D          

 47 52  0  0  1  0            999 V2000
   10.7157   -7.5622    0.0000 O   0  0  0  0  0  0  0  0  0  0  0  0
   10.4580   -6.7784    0.0000 C   0  0  1  0  0  0  0  0  0  0  0  0
    9.6846   -6.4913    0.0000 C   0  0  2  0  0  0  0  0  0  0  0  0
   11.0934   -6.2522    0.0000 C   0  0  0  0  0  0  0  0  0  0  0  0
   10.9554   -5.4388    0.0000 C   0  0  1  0  0  0  0  0  0  0  0  0
    9.5465   -5.6779    0.0000 O   0  0  0  0  0  0  0  0  0  0  0  0
   10.1820   -5.1516    0.0000 C   0  0  2  0  0  0  0  0  0  0  0  0
   11.7053   -5.0949    0.0000 O   0  0  0  0  0  0  0  0  0  0  0  0
    9.8382   -4.4018    0.0000 C   0  0  0  0  0  0  0  0  0  0  0  0
   11.9924   -4.3215    0.0000 C   0  0  1  0  0  0  0  0  0  0  0  0
   10.1252   -3.6283    0.0000 C   0  0  1  0  0  0  0  0  0  0  0  0
   11.6486   -3.5715    0.0000 C   0  0  2  0  0  0  0  0  0  0  0  0
   10.8751   -3.2844    0.0000 C   0  0  0  0  0  0  0  0  0  0  0  0
   12.8138   -4.3987    0.0000 C   0  0  0  0  0  0  0  0  0  0  0  0
   13.2913   -3.7259    0.0000 C   0  0  1  0  0  0  0  0  0  0  0  0
   12.1261   -2.8989    0.0000 O   0  0  0  0  0  0  0  0  0  0  0  0
   12.9474   -2.9759    0.0000 C   0  0  2  0  0  0  0  0  0  0  0  0
   14.0921   -3.9244    0.0000 O   0  0  0  0  0  0  0  0  0  0  0  0
   14.7466   -3.4223    0.0000 C   0  0  1  0  0  0  0  0  0  0  0  0
   13.3194   -2.2396    0.0000 C   0  0  2  0  0  0  0  0  0  0  0  0
   14.1270   -2.0711    0.0000 C   0  0  1  0  0  0  0  0  0  0  0  0
   14.7622   -2.5975    0.0000 C   0  0  2  0  0  0  0  0  0  0  0  0
   15.4531   -3.8482    0.0000 C   0  0  2  0  0  0  0  0  0  0  0  0
   16.1753   -3.4492    0.0000 C   0  0  1  0  0  0  0  0  0  0  0  0
   15.4843   -2.1986    0.0000 O   0  0  0  0  0  0  0  0  0  0  0  0
   16.1908   -2.6244    0.0000 C   0  0  1  0  0  0  0  0  0  0  0  0
   16.1456   -1.8915    0.0000 O   0  0  0  0  0  0  0  0  0  0  0  0
   16.9018   -2.8080    0.0000 C   0  0  0  0  0  0  0  0  0  0  0  0
   16.8288   -1.6219    0.0000 C   0  0  0  0  0  0  0  0  0  0  0  0
   17.2963   -2.1884    0.0000 C   0  0  1  0  0  0  0  0  0  0  0  0
   11.7470   -5.7540    0.0000 H   0  0  0  0  0  0  0  0  0  0  0  0
   12.4626   -5.1231    0.0000 H   0  0  0  0  0  0  0  0  0  0  0  0
   13.5977   -4.6014    0.0000 H   0  0  0  0  0  0  0  0  0  0  0  0
    9.5568   -3.0453    0.0000 C   0  0  0  0  0  0  0  0  0  0  0  0
   15.5836   -4.6448    0.0000 C   0  0  0  0  0  0  0  0  0  0  0  0
   14.3203   -1.2986    0.0000 O   0  0  0  0  0  0  0  0  0  0  0  0
    9.2761   -4.8307    0.0000 H   0  0  0  0  0  0  0  0  0  0  0  0
   11.4135   -2.6919    0.0000 H   0  0  0  0  0  0  0  0  0  0  0  0
   12.4822   -2.2357    0.0000 H   0  0  0  0  0  0  0  0  0  0  0  0
   14.8571   -1.7970    0.0000 H   0  0  0  0  0  0  0  0  0  0  0  0
   12.8003   -1.5262    0.0000 C   0  0  0  0  0  0  0  0  0  0  0  0
   16.7764   -3.7453    0.0000 C   0  0  0  0  0  0  0  0  0  0  0  0
   17.9201   -2.0358    0.0000 O   0  0  0  0  0  0  0  0  0  0  0  0
   14.7212   -4.2545    0.0000 H   0  0  0  0  0  0  0  0  0  0  0  0
    8.8877   -6.2777    0.0000 C   0  0  0  0  0  0  0  0  0  0  0  0
    8.9702   -6.9038    0.0000 C   0  0  0  0  0  0  0  0  0  0  0  0
    8.9702   -7.7288    0.0000 O   0  0  0  0  0  0  0  0  0  0  0  0
  2  1  1  1  0  0  0
  2  4  1  0  0  0  0
  2  3  1  0  0  0  0
  5  4  1  0  0  0  0
  3  6  1  0  0  0  0
  7  6  1  0  0  0  0
  8  5  1  0  0  0  0
  7  5  1  0  0  0  0
 10  8  1  0  0  0  0
  9  7  1  0  0  0  0
 11  9  1  0  0  0  0
 13 11  1  0  0  0  0
 13 12  1  0  0  0  0
 14 10  1  0  0  0  0
 12 10  1  0  0  0  0
 15 14  1  0  0  0  0
 16 12  1  0  0  0  0
 17 16  1  0  0  0  0
 18 15  1  0  0  0  0
 17 15  1  0  0  0  0
 19 18  1  0  0  0  0
 20 17  1  0  0  0  0
 21 20  1  0  0  0  0
 22 21  1  0  0  0  0
 23 19  1  0  0  0  0
 22 19  1  0  0  0  0
 24 23  1  0  0  0  0
 25 22  1  0  0  0  0
 26 24  1  0  0  0  0
 26 25  1  0  0  0  0
 26 27  1  1  0  0  0
 28 26  1  0  0  0  0
 29 27  1  0  0  0  0
 30 28  1  0  0  0  0
 30 29  1  0  0  0  0
  5 31  1  6  0  0  0
 10 32  1  6  0  0  0
 15 33  1  6  0  0  0
 11 34  1  6  0  0  0
 23 35  1  6  0  0  0
 21 36  1  6  0  0  0
  7 37  1  1  0  0  0
 12 38  1  1  0  0  0
 17 39  1  1  0  0  0
 22 40  1  1  0  0  0
 20 41  1  1  0  0  0
 24 42  1  1  0  0  0
 30 43  1  1  0  0  0
 19 44  1  6  0  0  0
  3 45  1  1  0  0  0
  3 46  1  0  0  0  0
 46 47  1  0  0  0  0
M  END
> <ID>
CHEBI:61255

> <NAME>
ciguatoxin HIJKLM ring fragment

> <DEFINITION>
A polycyclic ether comprising a linear sequence of sequence of five trans-fused oxacycles and one spiro-fused tetrahydrofuran ring.

> <STAR>
3

> <IUPAC_NAME>
(2R,2'R,3'S,4S,4a'R,6'R,7a'S,8a'R,9'S,10'S,10a'S,13'S,14'S,14a'R,15a'S,16a'R,17a'S)-3'-(hydroxymethyl)-3',6',9',13',14'-pentamethylicosahydro-1'H,3H-spiro[furan-2,12'-pyrano[3,2-b]pyrano[2'',3'':6',7']oxepino[2',3':5,6]pyrano[2,3-g]oxocine]-2',4,10'-triol

> <FORMULA>
C29H48O10

> <MASS>
556.68540

> <MONOISOTOPIC_MASS>
556.32475

> <CHARGE>
0

> <SMILES>
[H][C@]12C[C@@H](C)C[C@@]3([H])O[C@@](C)(CO)[C@H](O)C[C@]3([H])O[C@]1([H])C[C@]1([H])O[C@]3([H])[C@@H](C)[C@H](C)[C@@]4(C[C@H](O)CO4)O[C@@]3([H])[C@@H](O)[C@H](C)[C@@]1([H])O2

> <INCHI>
InChI=1S/C29H48O10/c1-13-6-18-19(35-20-9-23(32)28(5,12-30)38-21(20)7-13)8-22-25(36-18)15(3)24(33)27-26(37-22)14(2)16(4)29(39-27)10-17(31)11-34-29/h13-27,30-33H,6-12H2,1-5H3/t13-,14+,15+,16+,17+,18+,19-,20+,21-,22+,23-,24+,25-,26-,27+,28+,29-/m1/s1

> <INCHIKEY>
SKGLZUAKKRKQLC-JGHKTXDHSA-N

> <PUBMED_CITATION>
19523973

$$$$

Marvin  02081111582D          

 39 43  0  0  1  0            999 V2000
    9.4836   -7.2323    0.0000 C   0  0  1  0  0  0  0  0  0  0  0  0
    8.7102   -6.9451    0.0000 C   0  0  1  0  0  0  0  0  0  0  0  0
   10.2335   -6.8884    0.0000 O   0  0  0  0  0  0  0  0  0  0  0  0
    8.3663   -6.1952    0.0000 C   0  0  0  0  0  0  0  0  0  0  0  0
   10.5206   -6.1150    0.0000 C   0  0  1  0  0  0  0  0  0  0  0  0
    8.6533   -5.4217    0.0000 C   0  0  1  0  0  0  0  0  0  0  0  0
   10.1768   -5.3649    0.0000 C   0  0  2  0  0  0  0  0  0  0  0  0
    9.4033   -5.0778    0.0000 C   0  0  0  0  0  0  0  0  0  0  0  0
   11.3421   -6.1921    0.0000 C   0  0  0  0  0  0  0  0  0  0  0  0
   11.8196   -5.5193    0.0000 C   0  0  1  0  0  0  0  0  0  0  0  0
   10.6543   -4.6923    0.0000 O   0  0  0  0  0  0  0  0  0  0  0  0
   11.4757   -4.7693    0.0000 C   0  0  2  0  0  0  0  0  0  0  0  0
   12.6204   -5.7178    0.0000 O   0  0  0  0  0  0  0  0  0  0  0  0
   13.2749   -5.2157    0.0000 C   0  0  1  0  0  0  0  0  0  0  0  0
   11.8477   -4.0330    0.0000 C   0  0  2  0  0  0  0  0  0  0  0  0
   12.6553   -3.8644    0.0000 C   0  0  1  0  0  0  0  0  0  0  0  0
   13.2905   -4.3908    0.0000 C   0  0  2  0  0  0  0  0  0  0  0  0
   13.9815   -5.6416    0.0000 C   0  0  2  0  0  0  0  0  0  0  0  0
   14.7037   -5.2426    0.0000 C   0  0  1  0  0  0  0  0  0  0  0  0
   14.0127   -3.9920    0.0000 O   0  0  0  0  0  0  0  0  0  0  0  0
   14.7192   -4.4178    0.0000 C   0  0  1  0  0  0  0  0  0  0  0  0
   14.6740   -3.6849    0.0000 O   0  0  0  0  0  0  0  0  0  0  0  0
   15.4303   -4.6014    0.0000 C   0  0  0  0  0  0  0  0  0  0  0  0
   15.3572   -3.4152    0.0000 C   0  0  0  0  0  0  0  0  0  0  0  0
   15.8247   -3.9817    0.0000 C   0  0  0  0  0  0  0  0  0  0  0  0
   10.9908   -6.9166    0.0000 H   0  0  0  0  0  0  0  0  0  0  0  0
   12.1260   -6.3949    0.0000 H   0  0  0  0  0  0  0  0  0  0  0  0
    8.0849   -4.8387    0.0000 C   0  0  0  0  0  0  0  0  0  0  0  0
   14.1120   -6.4383    0.0000 C   0  0  0  0  0  0  0  0  0  0  0  0
   12.8486   -3.0919    0.0000 O   0  0  0  0  0  0  0  0  0  0  0  0
    9.9417   -4.4853    0.0000 H   0  0  0  0  0  0  0  0  0  0  0  0
   11.0104   -4.0291    0.0000 H   0  0  0  0  0  0  0  0  0  0  0  0
   13.3854   -3.5903    0.0000 H   0  0  0  0  0  0  0  0  0  0  0  0
   11.3286   -3.3195    0.0000 C   0  0  0  0  0  0  0  0  0  0  0  0
   15.3048   -5.5387    0.0000 C   0  0  0  0  0  0  0  0  0  0  0  0
   13.2495   -6.0479    0.0000 H   0  0  0  0  0  0  0  0  0  0  0  0
    9.5143   -8.0568    0.0000 O   0  0  0  0  0  0  0  0  0  0  0  0
    8.1488   -7.5497    0.0000 C   0  0  0  0  0  0  0  0  0  0  0  0
    7.3445   -7.3660    0.0000 O   0  0  0  0  0  0  0  0  0  0  0  0
  3  1  1  0  0  0  0
  2  1  1  0  0  0  0
  5  3  1  0  0  0  0
  4  2  1  0  0  0  0
  6  4  1  0  0  0  0
  8  6  1  0  0  0  0
  8  7  1  0  0  0  0
  9  5  1  0  0  0  0
  7  5  1  0  0  0  0
 10  9  1  0  0  0  0
 11  7  1  0  0  0  0
 12 11  1  0  0  0  0
 13 10  1  0  0  0  0
 12 10  1  0  0  0  0
 14 13  1  0  0  0  0
 15 12  1  0  0  0  0
 16 15  1  0  0  0  0
 17 16  1  0  0  0  0
 18 14  1  0  0  0  0
 17 14  1  0  0  0  0
 19 18  1  0  0  0  0
 20 17  1  0  0  0  0
 21 19  1  0  0  0  0
 21 20  1  0  0  0  0
 21 22  1  1  0  0  0
 23 21  1  0  0  0  0
 24 22  1  0  0  0  0
 25 23  1  0  0  0  0
 25 24  1  0  0  0  0
  5 26  1  6  0  0  0
 10 27  1  6  0  0  0
  6 28  1  6  0  0  0
 18 29  1  6  0  0  0
 16 30  1  6  0  0  0
  7 31  1  1  0  0  0
 12 32  1  1  0  0  0
 17 33  1  1  0  0  0
 15 34  1  1  0  0  0
 19 35  1  1  0  0  0
 14 36  1  6  0  0  0
  1 37  1  1  0  0  0
  2 38  1  6  0  0  0
 38 39  1  0  0  0  0
M  END
> <ID>
CHEBI:61261

> <NAME>
ciguatoxin IJKLM ring fragment

> <DEFINITION>
A polycyclic ether comprising a linear sequence of sequence of four trans-fused oxacycles and one spiro-fused tetrahydrofuran ring.

> <STAR>
3

> <IUPAC_NAME>
(2R,3'S,4'S,4a'R,5a'S,6a'R,8'R,9'S,11'S,12a'S,13a'R,14'S,15'S,15a'S)-9'-(hydroxymethyl)-3',4',11',14'-tetramethyloctadecahydro-3H-spiro[furan-2,2'-pyrano[2'',3'':6',7']oxepino[2',3':5,6]pyrano[3,2-b]oxocine]-8',15'-diol

> <FORMULA>
C25H42O8

> <MASS>
470.59620

> <MONOISOTOPIC_MASS>
470.28797

> <CHARGE>
0

> <SMILES>
[H][C@@]12C[C@]3([H])O[C@]4([H])[C@@H](C)[C@H](C)[C@@]5(CCCO5)O[C@@]4([H])[C@@H](O)[C@H](C)[C@@]3([H])O[C@@]1([H])C[C@@H](C)C[C@@H](CO)[C@H](O)O2

> <INCHI>
InChI=1S/C25H42O8/c1-12-8-16(11-26)24(28)32-18-10-19-21(30-17(18)9-12)14(3)20(27)23-22(31-19)13(2)15(4)25(33-23)6-5-7-29-25/h12-24,26-28H,5-11H2,1-4H3/t12-,13-,14-,15-,16-,17-,18+,19-,20-,21+,22+,23-,24+,25+/m0/s1

> <INCHIKEY>
HJJQSMPHORHGHP-ZMPMLXEHSA-N

$$$$

Marvin  02091111552D          

 18 19  0  0  1  0            999 V2000
    9.5963  -19.8226    0.0000 N   0  0  0  0  0  0  0  0  0  0  0  0
   10.3324  -19.4020    0.0000 C   0  0  0  0  0  0  0  0  0  0  0  0
   10.3324  -18.5870    0.0000 N   0  0  0  0  0  0  0  0  0  0  0  0
    8.8866  -19.4020    0.0000 C   0  0  0  0  0  0  0  0  0  0  0  0
    8.8866  -18.5870    0.0000 C   0  0  0  0  0  0  0  0  0  0  0  0
    9.5963  -18.1664    0.0000 C   0  0  0  0  0  0  0  0  0  0  0  0
    9.9907  -21.9257    0.0000 C   0  0  1  0  0  0  0  0  0  0  0  0
   10.2536  -21.1370    0.0000 C   0  0  0  0  0  0  0  0  0  0  0  0
    9.5963  -20.6376    0.0000 C   0  0  1  0  0  0  0  0  0  0  0  0
    8.9391  -21.1370    0.0000 O   0  0  0  0  0  0  0  0  0  0  0  0
    9.1757  -21.9257    0.0000 C   0  0  2  0  0  0  0  0  0  0  0  0
    8.7025  -22.5829    0.0000 C   0  0  0  0  0  0  0  0  0  0  0  0
    7.8876  -22.5041    0.0000 O   0  0  0  0  0  0  0  0  0  0  0  0
   10.4639  -22.6092    0.0000 O   0  0  0  0  0  0  0  0  0  0  0  0
   11.0422  -19.8226    0.0000 O   0  0  0  0  0  0  0  0  0  0  0  0
    9.5963  -17.3515    0.0000 O   0  0  0  0  0  0  0  0  0  0  0  0
    8.1768  -18.1664    0.0000 C   0  0  0  0  0  0  0  0  0  0  0  0
    7.4670  -18.5870    0.0000 O   0  0  0  0  0  0  0  0  0  0  0  0
  2  1  1  0  0  0  0
  4  1  1  0  0  0  0
  9  1  1  1  0  0  0
  3  2  1  0  0  0  0
 15  2  2  0  0  0  0
  6  3  1  0  0  0  0
  5  4  2  0  0  0  0
  6  5  1  0  0  0  0
 17  5  1  0  0  0  0
 16  6  2  0  0  0  0
 11  7  1  0  0  0  0
  8  7  1  0  0  0  0
  7 14  1  6  0  0  0
  9  8  1  0  0  0  0
 10  9  1  0  0  0  0
 11 10  1  0  0  0  0
 11 12  1  1  0  0  0
 13 12  1  0  0  0  0
 18 17  1  0  0  0  0
M  END
> <ID>
CHEBI:61288

> <NAME>
5-hydroxymethyl-2'-deoxyuridine

> <DEFINITION>
A pyrimidine 2'-deoxyribonucleoside composed of 2'-deoxyuridine having a 5-hydroxymethyl substituent.

> <STAR>
3

> <SYNONYM>
HMdU; alpha-hydroxythymidine; alpha-Hydroxy-thymidin; 5-HMdU; 1-((2R,4S,5R)-4-hydroxy-5-(hydroxymethyl)-tetrahydrofuran-2-yl)-5-(2-hydroxymethyl)pyrimidine-2,4(1H,3H)-dione

> <IUPAC_NAME>
2'-deoxy-5-(hydroxymethyl)uridine

> <FORMULA>
C10H14N2O6

> <MASS>
258.22800

> <MONOISOTOPIC_MASS>
258.08519

> <CHARGE>
0

> <SMILES>
OC[C@H]1O[C@H](C[C@@H]1O)n1cc(CO)c(=O)[nH]c1=O

> <INCHI>
InChI=1S/C10H14N2O6/c13-3-5-2-12(10(17)11-9(5)16)8-1-6(15)7(4-14)18-8/h2,6-8,13-15H,1,3-4H2,(H,11,16,17)/t6-,7+,8+/m0/s1

> <INCHIKEY>
IPAVKOYJGUMINP-XLPZGREQSA-N

> <CAS_REGISTRY_NUMBER>
5116-24-5

> <REAXYS_REGISTRY_NUMBER>
31615

> <CHEMIDPLUS>
5116-24-5

> <PUBMED_CITATION>
8349138

$$$$

Marvin  03131217062D          

 34 36  0  0  1  0            999 V2000
    7.0253   -8.2163    0.0000 C   0  0  2  0  0  0  0  0  0  0  0  0
    7.0253   -9.0413    0.0000 C   0  0  2  0  0  0  0  0  0  0  0  0
    6.3107   -7.8038    0.0000 O   0  0  0  0  0  0  0  0  0  0  0  0
    6.3107   -9.4538    0.0000 C   0  0  2  0  0  0  0  0  0  0  0  0
    5.5963   -8.2163    0.0000 C   0  0  1  0  0  0  0  0  0  0  0  0
    5.5963   -9.0413    0.0000 C   0  0  1  0  0  0  0  0  0  0  0  0
    7.7397   -7.8038    0.0000 O   0  0  0  0  0  0  0  0  0  0  0  0
    7.7397   -9.4538    0.0000 O   0  0  0  0  0  0  0  0  0  0  0  0
    6.3107  -10.2788    0.0000 O   0  0  0  0  0  0  0  0  0  0  0  0
    4.8819   -9.4538    0.0000 O   0  0  0  0  0  0  0  0  0  0  0  0
    4.8819   -7.8038    0.0000 C   0  0  0  0  0  0  0  0  0  0  0  0
    4.1673   -8.2163    0.0000 O   0  0  0  0  0  0  0  0  0  0  0  0
    8.4542   -5.7414    0.0000 C   0  0  2  0  0  0  0  0  0  0  0  0
    8.4542   -6.5663    0.0000 C   0  0  2  0  0  0  0  0  0  0  0  0
    7.7397   -5.3289    0.0000 O   0  0  0  0  0  0  0  0  0  0  0  0
    7.7397   -6.9788    0.0000 C   0  0  2  0  0  0  0  0  0  0  0  0
    7.0253   -5.7414    0.0000 C   0  0  1  0  0  0  0  0  0  0  0  0
    7.0253   -6.5663    0.0000 C   0  0  1  0  0  0  0  0  0  0  0  0
    9.1686   -5.3289    0.0000 O   0  0  0  0  0  0  0  0  0  0  0  0
    9.1686   -6.9788    0.0000 O   0  0  0  0  0  0  0  0  0  0  0  0
    6.3108   -6.9788    0.0000 O   0  0  0  0  0  0  0  0  0  0  0  0
    6.3108   -5.3289    0.0000 C   0  0  0  0  0  0  0  0  0  0  0  0
    5.5963   -5.7414    0.0000 O   0  0  0  0  0  0  0  0  0  0  0  0
    9.8832   -4.0914    0.0000 C   0  0  0  0  0  0  0  0  0  0  0  0
    9.1686   -4.5039    0.0000 C   0  0  2  0  0  0  0  0  0  0  0  0
    9.8832   -3.2663    0.0000 O   0  0  0  0  0  0  0  0  0  0  0  0
    8.4542   -4.0913    0.0000 C   0  0  2  0  0  0  0  0  0  0  0  0
    9.1687   -2.8538    0.0000 C   0  0  1  0  0  0  0  0  0  0  0  0
    8.4543   -3.2663    0.0000 C   0  0  1  0  0  0  0  0  0  0  0  0
   10.5976   -4.5039    0.0000 O   0  0  0  0  0  0  0  0  0  0  0  0
    7.7398   -4.5038    0.0000 O   0  0  0  0  0  0  0  0  0  0  0  0
    7.7398   -2.8538    0.0000 O   0  0  0  0  0  0  0  0  0  0  0  0
    9.1687   -2.0288    0.0000 C   0  0  0  0  0  0  0  0  0  0  0  0
    8.4543   -1.6163    0.0000 O   0  0  0  0  0  0  0  0  0  0  0  0
  1  2  1  0  0  0  0
  1  3  1  0  0  0  0
  2  4  1  0  0  0  0
  3  5  1  0  0  0  0
  4  6  1  0  0  0  0
  5  6  1  0  0  0  0
  1  7  1  6  0  0  0
  2  8  1  1  0  0  0
  4  9  1  1  0  0  0
  6 10  1  6  0  0  0
  5 11  1  1  0  0  0
 12 11  1  0  0  0  0
 13 14  1  0  0  0  0
 13 15  1  0  0  0  0
 14 16  1  0  0  0  0
 15 17  1  0  0  0  0
 16 18  1  0  0  0  0
 17 18  1  0  0  0  0
 13 19  1  6  0  0  0
 14 20  1  1  0  0  0
 16  7  1  1  0  0  0
 18 21  1  6  0  0  0
 17 22  1  1  0  0  0
 23 22  1  0  0  0  0
 24 25  1  0  0  0  0
 24 26  1  0  0  0  0
 25 27  1  0  0  0  0
 26 28  1  0  0  0  0
 27 29  1  0  0  0  0
 28 29  1  0  0  0  0
 24 30  1  0  0  0  0
 25 19  1  1  0  0  0
 27 31  1  1  0  0  0
 29 32  1  6  0  0  0
 28 33  1  1  0  0  0
 34 33  1  0  0  0  0
M  END
> <ID>
CHEBI:61306

> <NAME>
alpha-D-Manp-(1->3)-alpha-D-Manp-(1->2)-D-Manp

> <DEFINITION>
A linear mannotriose consisting of three D-mannose units joined by α-(1→3)- and α-(1→2)-linkages

> <STAR>
3

> <SYNONYM>
Manalpha1->3Manalpha1->2Man; alpha-D-mannosyl-(1->3)-alpha-D-mannosyl-(1->2)-D-mannose; alpha-D-Man-(1->3)-alpha-D-Man-(1->2)-D-Man; (Man)3

> <IUPAC_NAME>
alpha-D-mannopyranosyl-(1->3)-alpha-D-mannopyranosyl-(1->2)-D-mannopyranose

> <FORMULA>
C18H32O16

> <MASS>
504.43710

> <MONOISOTOPIC_MASS>
504.16903

> <CHARGE>
0

> <SMILES>
OC[C@H]1OC(O)[C@@H](O[C@H]2O[C@H](CO)[C@@H](O)[C@H](O[C@H]3O[C@H](CO)[C@@H](O)[C@H](O)[C@@H]3O)[C@@H]2O)[C@@H](O)[C@@H]1O

> <INCHI>
InChI=1S/C18H32O16/c19-1-4-8(23)11(26)15(16(29)30-4)34-18-13(28)14(9(24)6(3-21)32-18)33-17-12(27)10(25)7(22)5(2-20)31-17/h4-29H,1-3H2/t4-,5-,6-,7-,8-,9-,10+,11+,12+,13+,14+,15+,16?,17-,18-/m1/s1

> <INCHIKEY>
LHAOFBCHXGZGOR-CCFXQEQMSA-N

> <REAXYS_REGISTRY_NUMBER>
7837762

> <KEGG_GLYCAN_ACCESSION>
G01079

> <PUBMED_CITATION>
18047546; 8898075

$$$$

Marvin  07061109422D          

 22 23  0  0  1  0            999 V2000
   11.7273   -1.6898    0.0000 C   0  0  1  0  0  0  0  0  0  0  0  0
   11.7273   -2.5148    0.0000 C   0  0  1  0  0  0  0  0  0  0  0  0
   11.0127   -1.2773    0.0000 O   0  0  0  0  0  0  0  0  0  0  0  0
   11.0127   -2.9273    0.0000 C   0  0  2  0  0  0  0  0  0  0  0  0
   10.2983   -1.6898    0.0000 C   0  0  1  0  0  0  0  0  0  0  0  0
   10.2983   -2.5148    0.0000 C   0  0  2  0  0  0  0  0  0  0  0  0
   12.4417   -1.2773    0.0000 O   0  0  0  0  0  0  0  0  0  0  0  0
   12.4417   -2.9273    0.0000 O   0  0  0  0  0  0  0  0  0  0  0  0
   11.0127   -3.7523    0.0000 O   0  0  0  0  0  0  0  0  0  0  0  0
    9.5838   -2.9273    0.0000 O   0  0  0  0  0  0  0  0  0  0  0  0
    9.5838   -1.2773    0.0000 C   0  0  0  0  0  0  0  0  0  0  0  0
    8.8693   -1.6898    0.0000 O   0  0  0  0  0  0  0  0  0  0  0  0
   11.7272   -4.1647    0.0000 O   0  0  0  0  0  0  0  0  0  0  0  0
   11.7272   -4.9897    0.0000 C   0  0  2  0  0  0  0  0  0  0  0  0
   12.4417   -3.7522    0.0000 C   0  0  2  0  0  0  0  0  0  0  0  0
   13.1561   -4.1647    0.0000 C   0  0  2  0  0  0  0  0  0  0  0  0
   13.1561   -4.9897    0.0000 C   0  0  1  0  0  0  0  0  0  0  0  0
   12.4416   -5.4022    0.0000 C   0  0  2  0  0  0  0  0  0  0  0  0
   13.8706   -3.7524    0.0000 O   0  0  0  0  0  0  0  0  0  0  0  0
   13.8705   -5.4022    0.0000 O   0  0  0  0  0  0  0  0  0  0  0  0
   12.4416   -6.2271    0.0000 O   0  0  0  0  0  0  0  0  0  0  0  0
   11.0127   -5.4022    0.0000 C   0  0  0  0  0  0  0  0  0  0  0  0
  1  2  1  0  0  0  0
  1  3  1  0  0  0  0
  2  4  1  0  0  0  0
  3  5  1  0  0  0  0
  4  6  1  0  0  0  0
  5  6  1  0  0  0  0
  1  7  1  1  0  0  0
  2  8  1  6  0  0  0
  4  9  1  1  0  0  0
  6 10  1  1  0  0  0
  5 11  1  1  0  0  0
 12 11  1  0  0  0  0
 14 13  1  0  0  0  0
 15 13  1  0  0  0  0
 15  8  1  1  0  0  0
 15 16  1  0  0  0  0
 16 19  1  1  0  0  0
 16 17  1  0  0  0  0
 17 20  1  6  0  0  0
 17 18  1  0  0  0  0
 18 14  1  0  0  0  0
 18 21  1  6  0  0  0
 14 22  1  6  0  0  0
M  END
> <ID>
CHEBI:61529

> <NAME>
alpha-L-Fucp-(1->2)-beta-D-Galp

> <DEFINITION>
A glycosylgalactose consisting of β-D-galactose having an α-L-fucosyl residue attached at the 2-position.

> <STAR>
3

> <SYNONYM>
H disaccharide; H antigen disaccharide; Fucalpha1-2Galbeta; Fucalpha-1->2Galbeta; Fuca1-2Galb; blood group antigen H; alphaFuc(1-2)betaGal; alpha-L-fucosyl-(1->2)-beta-D-galactose; alpha-L-Fuc-(1->2)-beta-D-Gal; alpha-Fucp-(1->2)-beta-Galp; alpha-Fuc-(1->2)-beta-Gal; 2-O-alpha-L-fucopyranosyl-beta-D-galactopyranose; 2-O-(6-deoxy-alpha-L-galactopyranosyl)-beta-D-galactopyranose

> <IUPAC_NAME>
alpha-L-fucopyranosyl-(1->2)-beta-D-galactopyranose

> <FORMULA>
C12H22O10

> <MASS>
326.29710

> <MONOISOTOPIC_MASS>
326.12130

> <CHARGE>
0

> <SMILES>
C[C@@H]1O[C@@H](O[C@H]2[C@H](O)O[C@H](CO)[C@H](O)[C@@H]2O)[C@@H](O)[C@H](O)[C@@H]1O

> <INCHI>
InChI=1S/C12H22O10/c1-3-5(14)7(16)9(18)12(20-3)22-10-8(17)6(15)4(2-13)21-11(10)19/h3-19H,2H2,1H3/t3-,4+,5+,6-,7+,8-,9-,10+,11+,12-/m0/s1

> <INCHIKEY>
VSRVRBXGIRFARR-URMRTOKHSA-N

> <REAXYS_REGISTRY_NUMBER>
1290803

> <PUBMED_CITATION>
1591768; 1609521; 19443021; 25568069; 31537530; 7531759

$$$$

Marvin  03021116202D          

 16 16  0  0  1  0            999 V2000
    9.5629   -3.0790    0.0000 C   0  0  1  0  0  0  0  0  0  0  0  0
    9.5629   -2.2540    0.0000 C   0  0  0  0  0  0  0  0  0  0  0  0
    8.8484   -1.8415    0.0000 O   0  0  0  0  0  0  0  0  0  0  0  0
    8.8484   -3.4915    0.0000 C   0  0  2  0  0  0  0  0  0  0  0  0
    8.1340   -2.2540    0.0000 C   0  0  1  0  0  0  0  0  0  0  0  0
    8.1340   -3.0790    0.0000 C   0  0  1  0  0  0  0  0  0  0  0  0
   10.2773   -1.8415    0.0000 O   0  0  0  0  0  0  0  0  0  0  0  0
   10.2773   -3.4915    0.0000 O   0  0  0  0  0  0  0  0  0  0  0  0
    8.8484   -4.3165    0.0000 O   0  0  0  0  0  0  0  0  0  0  0  0
    7.4196   -3.4915    0.0000 O   0  0  0  0  0  0  0  0  0  0  0  0
    7.4196   -1.8415    0.0000 C   0  0  0  0  0  0  0  0  0  0  0  0
    6.7051   -2.2540    0.0000 O   0  0  0  0  0  0  0  0  0  0  0  0
    5.9906   -1.0165    0.0000 O   0  0  0  0  0  0  0  0  0  0  0  0
    5.2761   -2.2540    0.0000 O   0  5  0  0  0  0  0  0  0  0  0  0
    5.9906   -1.8415    0.0000 P   0  0  0  0  0  0  0  0  0  0  0  0
    5.9906   -2.6665    0.0000 O   0  5  0  0  0  0  0  0  0  0  0  0
  1  8  1  6  0  0  0
  2  1  1  0  0  0  0
  2  7  1  0  0  0  0
  2  3  1  0  0  0  0
  1  4  1  0  0  0  0
  4  9  1  1  0  0  0
  3  5  1  0  0  0  0
  5 11  1  1  0  0  0
  4  6  1  0  0  0  0
  5  6  1  0  0  0  0
  6 10  1  6  0  0  0
 12 11  1  0  0  0  0
 12 15  1  0  0  0  0
 13 15  2  0  0  0  0
 14 15  1  0  0  0  0
 15 16  1  0  0  0  0
M  CHG  2  14  -1  16  -1
M  END
> <ID>
CHEBI:61548

> <NAME>
D-glucopyranose 6-phosphate(2-)

> <DEFINITION>
An organophosphate oxoanion resulting from deprotonation of the phosphate OH groups of D-glucopyranose 6-phosphate; major species at pH 7.3.

> <STAR>
3

> <SYNONYM>
D-glucose 6-phosphate; D-glucopyranose 6-phosphate dianion; 6-O-phosphonato-D-glucopyranose

> <IUPAC_NAME>
D-glucopyranose 6-phosphate

> <FORMULA>
C6H11O9P

> <MASS>
258.11990

> <MONOISOTOPIC_MASS>
258.01517

> <CHARGE>
-2

> <SMILES>
OC1O[C@H](COP([O-])([O-])=O)[C@@H](O)[C@H](O)[C@H]1O

> <INCHI>
InChI=1S/C6H13O9P/c7-3-2(1-14-16(11,12)13)15-6(10)5(9)4(3)8/h2-10H,1H2,(H2,11,12,13)/p-2/t2-,3-,4+,5-,6?/m1/s1

> <INCHIKEY>
NBSCHQHZLSJFNQ-GASJEMHNSA-L

> <REAXYS_REGISTRY_NUMBER>
4149794

> <METACYC_ACCESSION>
D-glucopyranose-6-phosphate

> <PUBMED_CITATION>
22846255

$$$$

Marvin  03071110532D          

 45 47  0  0  1  0            999 V2000
   11.2690   -3.1232    0.0000 C   0  0  1  0  0  0  0  0  0  0  0  0
   11.9833   -3.5357    0.0000 C   0  0  2  0  0  0  0  0  0  0  0  0
   11.9833   -4.3607    0.0000 C   0  0  2  0  0  0  0  0  0  0  0  0
   11.2690   -4.7732    0.0000 C   0  0  1  0  0  0  0  0  0  0  0  0
   10.5545   -4.3607    0.0000 C   0  0  2  0  0  0  0  0  0  0  0  0
   10.5545   -3.5357    0.0000 C   0  0  2  0  0  0  0  0  0  0  0  0
    9.8401   -4.7732    0.0000 O   0  0  0  0  0  0  0  0  0  0  0  0
    9.8401   -3.1232    0.0000 O   0  0  0  0  0  0  0  0  0  0  0  0
   12.6977   -3.1232    0.0000 O   0  0  0  0  0  0  0  0  0  0  0  0
   12.6977   -4.7732    0.0000 O   0  0  0  0  0  0  0  0  0  0  0  0
   11.2690   -2.2984    0.0000 O   0  0  0  0  0  0  0  0  0  0  0  0
   11.2690   -5.5982    0.0000 O   0  0  0  0  0  0  0  0  0  0  0  0
   10.5546   -6.0106    0.0000 C   0  0  2  0  0  0  0  0  0  0  0  0
   10.5546   -6.8357    0.0000 C   0  0  1  0  0  0  0  0  0  0  0  0
    9.8401   -5.5982    0.0000 O   0  0  0  0  0  0  0  0  0  0  0  0
    9.8401   -7.2480    0.0000 C   0  0  2  0  0  0  0  0  0  0  0  0
    9.1256   -6.0106    0.0000 C   0  0  1  0  0  0  0  0  0  0  0  0
    9.1256   -6.8357    0.0000 C   0  0  1  0  0  0  0  0  0  0  0  0
   11.2690   -7.2480    0.0000 N   0  0  0  0  0  0  0  0  0  0  0  0
    9.8400   -8.0730    0.0000 O   0  0  0  0  0  0  0  0  0  0  0  0
    8.4111   -7.2480    0.0000 O   0  0  0  0  0  0  0  0  0  0  0  0
    8.4111   -5.5982    0.0000 C   0  0  0  0  0  0  0  0  0  0  0  0
    7.6966   -6.0106    0.0000 O   0  0  0  0  0  0  0  0  0  0  0  0
   13.4122   -4.3607    0.0000 P   0  0  0  0  0  0  0  0  0  0  0  0
   14.1267   -4.7732    0.0000 O   0  0  0  0  0  0  0  0  0  0  0  0
   13.4122   -3.5357    0.0000 O   0  0  0  0  0  0  0  0  0  0  0  0
   13.4122   -5.1857    0.0000 O   0  0  0  0  0  0  0  0  0  0  0  0
   14.8411   -4.3607    0.0000 C   0  0  0  0  0  0  0  0  0  0  0  0
   15.5556   -4.7732    0.0000 C   0  0  0  0  0  0  0  0  0  0  0  0
   16.2700   -4.3607    0.0000 C   0  0  0  0  0  0  0  0  0  0  0  0
   16.9844   -4.7732    0.0000 C   0  0  0  0  0  0  0  0  0  0  0  0
   17.6988   -4.3607    0.0000 C   0  0  0  0  0  0  0  0  0  0  0  0
   18.4133   -4.7732    0.0000 C   0  0  0  0  0  0  0  0  0  0  0  0
   19.1278   -4.3607    0.0000 S   0  0  0  0  0  0  0  0  0  0  0  0
    7.6966   -7.6605    0.0000 C   0  0  2  0  0  0  0  0  0  0  0  0
    7.6966   -8.4855    0.0000 C   0  0  2  0  0  0  0  0  0  0  0  0
    6.9821   -7.2480    0.0000 O   0  0  0  0  0  0  0  0  0  0  0  0
    6.9821   -8.8980    0.0000 C   0  0  2  0  0  0  0  0  0  0  0  0
    6.2677   -7.6605    0.0000 C   0  0  1  0  0  0  0  0  0  0  0  0
    6.2677   -8.4855    0.0000 C   0  0  1  0  0  0  0  0  0  0  0  0
    8.4111   -8.8980    0.0000 O   0  0  0  0  0  0  0  0  0  0  0  0
    6.9821   -9.7231    0.0000 O   0  0  0  0  0  0  0  0  0  0  0  0
    5.5532   -8.8980    0.0000 O   0  0  0  0  0  0  0  0  0  0  0  0
    5.5532   -7.2480    0.0000 C   0  0  0  0  0  0  0  0  0  0  0  0
    4.8387   -7.6605    0.0000 O   0  0  0  0  0  0  0  0  0  0  0  0
  1  2  1  0  0  0  0
  1  6  1  0  0  0  0
  2  3  1  0  0  0  0
  3  4  1  0  0  0  0
  4  5  1  0  0  0  0
  5  6  1  0  0  0  0
  5  7  1  1  0  0  0
  6  8  1  6  0  0  0
  2  9  1  1  0  0  0
  3 10  1  1  0  0  0
  1 11  1  1  0  0  0
  4 12  1  6  0  0  0
 13 14  1  0  0  0  0
 13 15  1  0  0  0  0
 14 16  1  0  0  0  0
 15 17  1  0  0  0  0
 16 18  1  0  0  0  0
 17 18  1  0  0  0  0
 13 12  1  6  0  0  0
 14 19  1  6  0  0  0
 16 20  1  1  0  0  0
 18 21  1  6  0  0  0
 17 22  1  1  0  0  0
 23 22  1  0  0  0  0
 10 24  1  0  0  0  0
 24 25  1  0  0  0  0
 24 26  2  0  0  0  0
 24 27  1  0  0  0  0
 25 28  1  0  0  0  0
 28 29  1  0  0  0  0
 29 30  1  0  0  0  0
 30 31  1  0  0  0  0
 31 32  1  0  0  0  0
 32 33  1  0  0  0  0
 33 34  1  0  0  0  0
 35 36  1  0  0  0  0
 35 37  1  0  0  0  0
 36 38  1  0  0  0  0
 37 39  1  0  0  0  0
 38 40  1  0  0  0  0
 39 40  1  0  0  0  0
 35 21  1  6  0  0  0
 36 41  1  1  0  0  0
 38 42  1  1  0  0  0
 40 43  1  6  0  0  0
 39 44  1  1  0  0  0
 45 44  1  0  0  0  0
M  END
> <ID>
CHEBI:61585

> <NAME>
(alpha-D-Man)-(1->4)-(alpha-D-GlcN)-(1->6)-1-O-(6-thiohexylphosphono)-D-myo-inositol

> <DEFINITION>
A myo-inositol monophosphate derivative consisting of 1-O-(6-thiohexylphosphono)-D-myo-inositol having an α-D-mannosyl-(1→4)-α-D-glucosaminyl residue at the 6-position.

> <STAR>
3

> <SYNONYM>
(alpha-D-mannosyl)-(1->4)-(alpha-D-glucosaminyl)-(1->6)-1-O-(6-thiohexylphosphono)-D-myo-inositol; (alpha-D-mannopyranosyl)-(1->4)-(2-amino-2-deoxy-alpha-D-glucopyranosyl)-(1->6)-1-O-(6-thiohexylphosphono)-D-myo-inositol

> <IUPAC_NAME>
(1R,2R,3S,4R,5R,6R)-2-{[2-amino-2-deoxy-4-O-(alpha-D-mannopyranosyl)-alpha-D-glucopyranosyl]oxy}-3,4,5,6-tetrahydroxycyclohexyl 6-sulfanylhexyl hydrogen phosphate

> <FORMULA>
C24H46NO18PS

> <MASS>
699.65700

> <MONOISOTOPIC_MASS>
699.21732

> <CHARGE>
0

> <SMILES>
N[C@@H]1[C@@H](O)[C@H](O[C@H]2O[C@H](CO)[C@@H](O)[C@H](O)[C@@H]2O)[C@@H](CO)O[C@@H]1O[C@@H]1[C@@H](O)[C@H](O)[C@@H](O)[C@@H](O)[C@H]1OP(O)(=O)OCCCCCCS

> <INCHI>
InChI=1S/C24H46NO18PS/c25-11-13(29)20(41-24-19(35)14(30)12(28)9(7-26)39-24)10(8-27)40-23(11)42-21-17(33)15(31)16(32)18(34)22(21)43-44(36,37)38-5-3-1-2-4-6-45/h9-24,26-35,45H,1-8,25H2,(H,36,37)/t9-,10-,11-,12-,13-,14+,15-,16-,17+,18-,19+,20-,21-,22-,23-,24-/m1/s1

> <INCHIKEY>
VBGOAXKDRMTXBZ-WQUMXLTESA-N

> <REAXYS_REGISTRY_NUMBER>
10232884

> <PUBMED_CITATION>
15729674; 20471845

$$$$

Marvin  03081110202D          

 45 48  0  0  1  0            999 V2000
   10.1661   -6.3601    0.0000 O   0  0  0  0  0  0  0  0  0  0  0  0
   10.8808   -4.2976    0.0000 C   0  0  1  0  0  0  0  0  0  0  0  0
   10.8808   -5.1226    0.0000 C   0  0  1  0  0  0  0  0  0  0  0  0
   10.1661   -3.8851    0.0000 O   0  0  0  0  0  0  0  0  0  0  0  0
   10.1661   -5.5351    0.0000 C   0  0  2  0  0  0  0  0  0  0  0  0
    9.4517   -4.2976    0.0000 C   0  0  1  0  0  0  0  0  0  0  0  0
    9.4517   -5.1226    0.0000 C   0  0  1  0  0  0  0  0  0  0  0  0
   11.5952   -5.5351    0.0000 N   0  0  0  0  0  0  0  0  0  0  0  0
    8.7373   -5.5351    0.0000 O   0  0  0  0  0  0  0  0  0  0  0  0
    8.7373   -3.8851    0.0000 C   0  0  0  0  0  0  0  0  0  0  0  0
    8.0229   -4.2976    0.0000 O   0  0  0  0  0  0  0  0  0  0  0  0
   12.3096   -5.1226    0.0000 C   0  0  0  0  0  0  0  0  0  0  0  0
   12.3097   -4.2976    0.0000 O   0  0  0  0  0  0  0  0  0  0  0  0
   13.0241   -5.5351    0.0000 C   0  0  0  0  0  0  0  0  0  0  0  0
   11.5952   -3.8851    0.0000 O   0  0  0  0  0  0  0  0  0  0  0  0
    9.4502   -6.7698    0.0000 C   0  0  1  0  0  0  0  0  0  0  0  0
    9.4502   -7.5948    0.0000 C   0  0  2  0  0  0  0  0  0  0  0  0
   10.1664   -8.0101    0.0000 O   0  0  0  0  0  0  0  0  0  0  0  0
    8.7340   -8.0045    0.0000 C   0  0  2  0  0  0  0  0  0  0  0  0
    8.7340   -8.8294    0.0000 O   0  0  0  0  0  0  0  0  0  0  0  0
    8.0179   -7.5891    0.0000 C   0  0  1  0  0  0  0  0  0  0  0  0
    7.3018   -7.9988    0.0000 O   0  0  0  0  0  0  0  0  0  0  0  0
    8.0178   -6.7641    0.0000 C   0  0  1  0  0  0  0  0  0  0  0  0
    8.7340   -6.3545    0.0000 O   0  0  0  0  0  0  0  0  0  0  0  0
    7.3142   -6.3560    0.0000 C   0  0  0  0  0  0  0  0  0  0  0  0
    7.3031  -11.3011    0.0000 O   0  0  0  0  0  0  0  0  0  0  0  0
    8.0191   -9.2412    0.0000 C   0  0  1  0  0  0  0  0  0  0  0  0
    8.0191  -10.0664    0.0000 C   0  0  2  0  0  0  0  0  0  0  0  0
    8.7353  -10.4817    0.0000 O   0  0  0  0  0  0  0  0  0  0  0  0
    7.3031  -10.4761    0.0000 C   0  0  1  0  0  0  0  0  0  0  0  0
    6.5870  -10.0608    0.0000 C   0  0  1  0  0  0  0  0  0  0  0  0
    5.8710  -10.4704    0.0000 O   0  0  0  0  0  0  0  0  0  0  0  0
    6.5870   -9.2357    0.0000 C   0  0  1  0  0  0  0  0  0  0  0  0
    7.3030   -8.8259    0.0000 O   0  0  0  0  0  0  0  0  0  0  0  0
    5.8832   -8.8276    0.0000 C   0  0  0  0  0  0  0  0  0  0  0  0
   10.1527  -12.9594    0.0000 O   0  0  0  0  0  0  0  0  0  0  0  0
    8.7304  -11.3065    0.0000 C   0  0  1  0  0  0  0  0  0  0  0  0
    9.4440  -11.7206    0.0000 C   0  0  2  0  0  0  0  0  0  0  0  0
   10.1625  -11.3096    0.0000 O   0  0  0  0  0  0  0  0  0  0  0  0
    9.4391  -12.5455    0.0000 C   0  0  1  0  0  0  0  0  0  0  0  0
    8.7206  -12.9565    0.0000 C   0  0  1  0  0  0  0  0  0  0  0  0
    8.7157  -13.7815    0.0000 O   0  0  0  0  0  0  0  0  0  0  0  0
    8.0069  -12.5427    0.0000 C   0  0  1  0  0  0  0  0  0  0  0  0
    8.0118  -11.7177    0.0000 O   0  0  0  0  0  0  0  0  0  0  0  0
    7.3008  -12.9467    0.0000 C   0  0  0  0  0  0  0  0  0  0  0  0
  2  3  1  0  0  0  0
  2  4  1  0  0  0  0
  3  5  1  0  0  0  0
  4  6  1  0  0  0  0
  5  7  1  0  0  0  0
  6  7  1  0  0  0  0
  3  8  1  6  0  0  0
  5  1  1  1  0  0  0
  7  9  1  6  0  0  0
  6 10  1  1  0  0  0
 11 10  1  0  0  0  0
 13 12  2  0  0  0  0
 14 12  1  0  0  0  0
  8 12  1  0  0  0  0
  2 15  1  1  0  0  0
 16  1  1  1  0  0  0
 17 16  1  0  0  0  0
 24 16  1  0  0  0  0
 17 18  1  6  0  0  0
 19 17  1  0  0  0  0
 19 20  1  6  0  0  0
 21 19  1  0  0  0  0
 21 22  1  1  0  0  0
 23 21  1  0  0  0  0
 24 23  1  0  0  0  0
 23 25  1  6  0  0  0
 28 27  1  0  0  0  0
 34 27  1  0  0  0  0
 28 29  1  6  0  0  0
 30 28  1  0  0  0  0
 30 26  1  6  0  0  0
 31 30  1  0  0  0  0
 31 32  1  1  0  0  0
 33 31  1  0  0  0  0
 34 33  1  0  0  0  0
 33 35  1  6  0  0  0
 37 29  1  1  0  0  0
 38 37  1  0  0  0  0
 44 37  1  0  0  0  0
 38 39  1  6  0  0  0
 40 38  1  0  0  0  0
 40 36  1  6  0  0  0
 41 40  1  0  0  0  0
 41 42  1  1  0  0  0
 43 41  1  0  0  0  0
 44 43  1  0  0  0  0
 43 45  1  6  0  0  0
 27 20  1  1  0  0  0
M  END
> <ID>
CHEBI:61601

> <NAME>
alpha-L-Rhap-(1->2)-alpha-L-Rhap-(1->3)-alpha-L-Rhap-(1->3)-beta-D-GlcpNAc

> <DEFINITION>
A glucosamine oligosaccharide comprising N-acetylglucosamine at the reducing end having an α-L-rhamnosyl-(1→2)-α-L-rhamnosyl-(1→3)-α-L-rhamnosyl group attached at the 3-position.

> <STAR>
3

> <SYNONYM>
alpha-L-rhamnosyl-(1->2)-alpha-L-rhamnosyl-(1->3)-alpha-L-rhamnosyl-(1->3)-N-acetyl-beta-D-glucosamine; alpha-L-Rha-(1->2)-alpha-L-Rha-(1->3)-alpha-L-Rha-(1->3)-beta-D-GlcNAc; 6-deoxy-alpha-L-mannopyranosyl-(1->2)-6-deoxy-alpha-L-mannopyranosyl-(1->3)-6-deoxy-alpha-L-mannopyranosyl-(1->3)-2-acetamido-2-deoxy-beta-D-glucopyranose; (GlcNAc)1 (LRha)3

> <IUPAC_NAME>
alpha-L-rhamnopyranosyl-(1->2)-alpha-L-rhamnopyranosyl-(1->3)-alpha-L-rhamnopyranosyl-(1->3)-2-acetamido-2-deoxy-beta-D-glucopyranose

> <FORMULA>
C26H45NO18

> <MASS>
659.63140

> <MONOISOTOPIC_MASS>
659.26366

> <CHARGE>
0

> <SMILES>
C[C@@H]1O[C@@H](O[C@@H]2[C@H](O)[C@@H](O)[C@H](C)O[C@H]2O[C@@H]2[C@@H](O)[C@H](C)O[C@@H](O[C@H]3[C@H](O)[C@@H](CO)O[C@@H](O)[C@@H]3NC(C)=O)[C@@H]2O)[C@H](O)[C@H](O)[C@H]1O

> <INCHI>
InChI=1S/C26H45NO18/c1-6-12(30)16(34)18(36)24(39-6)45-22-17(35)13(31)7(2)41-26(22)44-21-14(32)8(3)40-25(19(21)37)43-20-11(27-9(4)29)23(38)42-10(5-28)15(20)33/h6-8,10-26,28,30-38H,5H2,1-4H3,(H,27,29)/t6-,7-,8-,10+,11+,12-,13-,14-,15+,16+,17+,18+,19+,20+,21+,22+,23+,24-,25-,26-/m0/s1

> <INCHIKEY>
UTJMWWBYJZRONA-KZLWEHJKSA-N

> <REAXYS_REGISTRY_NUMBER>
5719902

> <KEGG_GLYCAN_ACCESSION>
G00855

> <PUBMED_CITATION>
12925526; 3315202; 3531329

$$$$

Marvin  03081111592D          

 22 23  0  0  1  0            999 V2000
    9.7480  -12.4828    0.0000 C   0  0  1  0  0  0  0  0  0  0  0  0
    9.0344  -12.8965    0.0000 C   0  0  2  0  0  0  0  0  0  0  0  0
    9.0344  -13.7245    0.0000 O   0  0  0  0  0  0  0  0  0  0  0  0
    8.3208  -12.4826    0.0000 C   0  0  2  0  0  0  0  0  0  0  0  0
    7.6071  -12.8964    0.0000 O   0  0  0  0  0  0  0  0  0  0  0  0
    8.3208  -11.6548    0.0000 C   0  0  1  0  0  0  0  0  0  0  0  0
    7.6072  -11.2408    0.0000 O   0  0  0  0  0  0  0  0  0  0  0  0
    9.0345  -11.2408    0.0000 C   0  0  1  0  0  0  0  0  0  0  0  0
    9.7480  -11.6549    0.0000 O   0  0  0  0  0  0  0  0  0  0  0  0
    9.0346  -10.4274    0.0000 C   0  0  0  0  0  0  0  0  0  0  0  0
   10.4629  -12.8946    0.0000 O   0  0  0  0  0  0  0  0  0  0  0  0
   12.6061  -14.9571    0.0000 O   0  0  0  0  0  0  0  0  0  0  0  0
   13.3207  -12.8946    0.0000 C   0  0  0  0  0  0  0  0  0  0  0  0
   13.3207  -13.7196    0.0000 C   0  0  1  0  0  0  0  0  0  0  0  0
   12.6061  -12.4821    0.0000 O   0  0  0  0  0  0  0  0  0  0  0  0
   12.6061  -14.1321    0.0000 C   0  0  2  0  0  0  0  0  0  0  0  0
   11.8917  -12.8946    0.0000 C   0  0  1  0  0  0  0  0  0  0  0  0
   11.8917  -13.7196    0.0000 C   0  0  1  0  0  0  0  0  0  0  0  0
   14.0351  -14.1322    0.0000 O   0  0  0  0  0  0  0  0  0  0  0  0
   11.1773  -14.1321    0.0000 O   0  0  0  0  0  0  0  0  0  0  0  0
   11.1773  -12.4821    0.0000 C   0  0  0  0  0  0  0  0  0  0  0  0
   14.0352  -12.4821    0.0000 O   0  0  0  0  0  0  0  0  0  0  0  0
  2  1  1  0  0  0  0
  9  1  1  0  0  0  0
  2  3  1  6  0  0  0
  4  2  1  0  0  0  0
  4  5  1  6  0  0  0
  6  4  1  0  0  0  0
  6  7  1  1  0  0  0
  8  6  1  0  0  0  0
  9  8  1  0  0  0  0
  8 10  1  6  0  0  0
  1 11  1  1  0  0  0
 13 14  1  0  0  0  0
 13 15  1  0  0  0  0
 14 16  1  0  0  0  0
 15 17  1  0  0  0  0
 16 18  1  0  0  0  0
 17 18  1  0  0  0  0
 14 19  1  6  0  0  0
 16 12  1  1  0  0  0
 18 20  1  6  0  0  0
 17 21  1  1  0  0  0
 11 21  1  0  0  0  0
 13 22  1  0  0  0  0
M  END
> <ID>
CHEBI:61606

> <NAME>
alpha-L-Rhap-(1->6)-D-Glcp

> <DEFINITION>
A glycosylglucose in which the glycosyl moiety is L-rhamnose linked α to C-6 of D-glucose.

> <STAR>
3

> <SYNONYM>
Rutinoside; Rutinose; Rutin; Nicotiflorin; Mabioside; Hesperidin; alpha-L-rhamnosyl-(1->6)-D-glucose; alpha-L-Rha-(1->6)-D-Glc; 6-O-(alpha-L-rhamnopyranosyl)-D-glucopyranose; 6-O-(6-deoxy-alpha-L-mannopyranosyl)-D-glucopyranose; 6-deoxy-alpha-L-mannopyranosyl-(1->6)-D-glucopyranose; (Glc)1 (LRha)1

> <IUPAC_NAME>
alpha-L-rhamnopyranosyl-(1->6)-D-glucopyranose

> <FORMULA>
C12H22O10

> <MASS>
326.29710

> <MONOISOTOPIC_MASS>
326.12130

> <CHARGE>
0

> <SMILES>
C[C@@H]1O[C@@H](OC[C@H]2OC(O)[C@H](O)[C@@H](O)[C@@H]2O)[C@H](O)[C@H](O)[C@H]1O

> <INCHI>
InChI=1S/C12H22O10/c1-3-5(13)7(15)10(18)12(21-3)20-2-4-6(14)8(16)9(17)11(19)22-4/h3-19H,2H2,1H3/t3-,4+,5-,6+,7+,8-,9+,10+,11?,12+/m0/s1

> <INCHIKEY>
OVVGHDNPYGTYIT-ROUHPGRKSA-N

> <REAXYS_REGISTRY_NUMBER>
1433334

> <KEGG_GLYCAN_ACCESSION>
G00283

> <PUBMED_CITATION>
1368309; 2279247

$$$$

Marvin  03081115522D          

 34 36  0  0  1  0            999 V2000
    3.8326   -9.9011    0.0000 C   0  0  2  0  0  0  0  0  0  0  0  0
    3.8326  -10.7261    0.0000 C   0  0  2  0  0  0  0  0  0  0  0  0
    3.1182   -9.4885    0.0000 O   0  0  0  0  0  0  0  0  0  0  0  0
    3.1181  -11.1385    0.0000 C   0  0  2  0  0  0  0  0  0  0  0  0
    2.4037   -9.9010    0.0000 C   0  0  1  0  0  0  0  0  0  0  0  0
    2.4036  -10.7260    0.0000 C   0  0  1  0  0  0  0  0  0  0  0  0
    4.5470  -11.1386    0.0000 O   0  0  0  0  0  0  0  0  0  0  0  0
    3.1179  -11.9635    0.0000 O   0  0  0  0  0  0  0  0  0  0  0  0
    1.6892  -11.1384    0.0000 O   0  0  0  0  0  0  0  0  0  0  0  0
    1.6893   -9.4885    0.0000 C   0  0  0  0  0  0  0  0  0  0  0  0
    0.9748   -9.9009    0.0000 O   0  0  0  0  0  0  0  0  0  0  0  0
    4.5471   -9.4887    0.0000 O   0  0  0  0  0  0  0  0  0  0  0  0
    3.8327   -5.7763    0.0000 O   0  0  0  0  0  0  0  0  0  0  0  0
    8.8338   -8.6638    0.0000 C   0  0  0  0  0  0  0  0  0  0  0  0
    8.8338   -9.4887    0.0000 C   0  0  2  0  0  0  0  0  0  0  0  0
    8.1193   -8.2513    0.0000 O   0  0  0  0  0  0  0  0  0  0  0  0
    8.1193   -9.9012    0.0000 C   0  0  2  0  0  0  0  0  0  0  0  0
    7.4049   -8.6638    0.0000 C   0  0  1  0  0  0  0  0  0  0  0  0
    7.4049   -9.4887    0.0000 C   0  0  1  0  0  0  0  0  0  0  0  0
    9.5483   -8.2513    0.0000 O   0  0  0  0  0  0  0  0  0  0  0  0
    9.5483   -9.9012    0.0000 O   0  0  0  0  0  0  0  0  0  0  0  0
    8.1193  -10.7262    0.0000 O   0  0  0  0  0  0  0  0  0  0  0  0
    6.6904   -9.9012    0.0000 O   0  0  0  0  0  0  0  0  0  0  0  0
    6.6904   -8.2513    0.0000 C   0  0  0  0  0  0  0  0  0  0  0  0
    5.9760   -8.6638    0.0000 O   0  0  0  0  0  0  0  0  0  0  0  0
    5.2615   -8.2513    0.0000 C   0  0  2  0  0  0  0  0  0  0  0  0
    4.5471   -8.6638    0.0000 C   0  0  2  0  0  0  0  0  0  0  0  0
    5.2616   -7.4262    0.0000 O   0  0  0  0  0  0  0  0  0  0  0  0
    3.8326   -8.2513    0.0000 C   0  0  2  0  0  0  0  0  0  0  0  0
    4.5471   -7.0137    0.0000 C   0  0  1  0  0  0  0  0  0  0  0  0
    3.8326   -7.4262    0.0000 C   0  0  1  0  0  0  0  0  0  0  0  0
    3.1181   -8.6636    0.0000 O   0  0  0  0  0  0  0  0  0  0  0  0
    3.1182   -7.0137    0.0000 O   0  0  0  0  0  0  0  0  0  0  0  0
    4.5471   -6.1888    0.0000 C   0  0  0  0  0  0  0  0  0  0  0  0
  1  2  1  0  0  0  0
  1  3  1  0  0  0  0
  2  4  1  0  0  0  0
  3  5  1  0  0  0  0
  4  6  1  0  0  0  0
  5  6  1  0  0  0  0
  2  7  1  1  0  0  0
  4  8  1  1  0  0  0
  6  9  1  6  0  0  0
  5 10  1  1  0  0  0
 11 10  1  0  0  0  0
  1 12  1  6  0  0  0
 14 15  1  0  0  0  0
 14 16  1  0  0  0  0
 15 17  1  0  0  0  0
 16 18  1  0  0  0  0
 17 19  1  0  0  0  0
 18 19  1  0  0  0  0
 14 20  1  0  0  0  0
 15 21  1  1  0  0  0
 17 22  1  1  0  0  0
 19 23  1  6  0  0  0
 18 24  1  1  0  0  0
 25 24  1  0  0  0  0
 26 27  1  0  0  0  0
 26 28  1  0  0  0  0
 27 29  1  0  0  0  0
 28 30  1  0  0  0  0
 29 31  1  0  0  0  0
 30 31  1  0  0  0  0
 26 25  1  6  0  0  0
 27 12  1  1  0  0  0
 29 32  1  1  0  0  0
 31 33  1  6  0  0  0
 30 34  1  1  0  0  0
 13 34  1  0  0  0  0
M  END
> <ID>
CHEBI:61612

> <NAME>
alpha-D-Manp-(1->2)-alpha-D-Manp-(1->6)-D-Manp

> <DEFINITION>
A linear trisaccharide consisting of three D-mannose units joined by α-(1→2)- and α-(1→6)-linkages

> <STAR>
3

> <SYNONYM>
alpha-D-mannosyl-(1->2)-alpha-D-mannosyl-(1->6)-D-mannose; alpha-D-Man-(1->2)-alpha-D-Man-(1->6)-D-Man; (Man)3

> <IUPAC_NAME>
alpha-D-mannopyranosyl-(1->2)-alpha-D-mannopyranosyl-(1->6)-D-mannopyranose

> <FORMULA>
C18H32O16

> <MASS>
504.43710

> <MONOISOTOPIC_MASS>
504.16903

> <CHARGE>
0

> <SMILES>
OC[C@H]1O[C@H](O[C@H]2[C@@H](O)[C@H](O)[C@@H](CO)O[C@@H]2OC[C@H]2OC(O)[C@@H](O)[C@@H](O)[C@@H]2O)[C@@H](O)[C@@H](O)[C@@H]1O

> <INCHI>
InChI=1S/C18H32O16/c19-1-4-7(21)11(25)14(28)17(32-4)34-15-12(26)8(22)5(2-20)33-18(15)30-3-6-9(23)10(24)13(27)16(29)31-6/h4-29H,1-3H2/t4-,5-,6-,7-,8-,9-,10+,11+,12+,13+,14+,15+,16?,17-,18+/m1/s1

> <INCHIKEY>
OEEQIADBUWFDPO-UEANRVJISA-N

> <KEGG_GLYCAN_ACCESSION>
G00840

> <PUBMED_CITATION>
1368530

$$$$

Marvin  03081116102D          

 34 36  0  0  1  0            999 V2000
   10.3386   -8.3153    0.0000 C   0  0  2  0  0  0  0  0  0  0  0  0
   10.3386   -9.1403    0.0000 C   0  0  2  0  0  0  0  0  0  0  0  0
    9.6240   -7.9028    0.0000 O   0  0  0  0  0  0  0  0  0  0  0  0
    9.6240   -9.5528    0.0000 C   0  0  2  0  0  0  0  0  0  0  0  0
    8.9096   -8.3153    0.0000 C   0  0  1  0  0  0  0  0  0  0  0  0
    8.9096   -9.1403    0.0000 C   0  0  1  0  0  0  0  0  0  0  0  0
   11.0530   -9.5528    0.0000 O   0  0  0  0  0  0  0  0  0  0  0  0
    9.6240  -10.3778    0.0000 O   0  0  0  0  0  0  0  0  0  0  0  0
    8.1951   -9.5528    0.0000 O   0  0  0  0  0  0  0  0  0  0  0  0
    8.1951   -7.9028    0.0000 C   0  0  0  0  0  0  0  0  0  0  0  0
    7.4807   -8.3153    0.0000 O   0  0  0  0  0  0  0  0  0  0  0  0
   10.2567   -2.1428    0.0000 C   0  0  0  0  0  0  0  0  0  0  0  0
   10.2567   -2.9678    0.0000 C   0  0  2  0  0  0  0  0  0  0  0  0
    9.5422   -1.7303    0.0000 O   0  0  0  0  0  0  0  0  0  0  0  0
    9.5422   -3.3803    0.0000 C   0  0  2  0  0  0  0  0  0  0  0  0
    8.8277   -2.1428    0.0000 C   0  0  1  0  0  0  0  0  0  0  0  0
    8.8277   -2.9678    0.0000 C   0  0  1  0  0  0  0  0  0  0  0  0
   11.1601   -4.1755    0.0000 O   0  0  0  0  0  0  0  0  0  0  0  0
    9.5422   -4.2053    0.0000 O   0  0  0  0  0  0  0  0  0  0  0  0
    8.1133   -3.3802    0.0000 O   0  0  0  0  0  0  0  0  0  0  0  0
    8.1133   -1.7303    0.0000 C   0  0  0  0  0  0  0  0  0  0  0  0
    7.3988   -2.1428    0.0000 O   0  0  0  0  0  0  0  0  0  0  0  0
   10.2866   -5.2240    0.0000 C   0  0  2  0  0  0  0  0  0  0  0  0
   10.2866   -6.0490    0.0000 C   0  0  2  0  0  0  0  0  0  0  0  0
    9.5720   -4.8115    0.0000 O   0  0  0  0  0  0  0  0  0  0  0  0
    9.5720   -6.4615    0.0000 C   0  0  2  0  0  0  0  0  0  0  0  0
    8.8576   -5.2240    0.0000 C   0  0  1  0  0  0  0  0  0  0  0  0
    8.8576   -6.0490    0.0000 C   0  0  1  0  0  0  0  0  0  0  0  0
   11.1402   -7.2269    0.0000 O   0  0  0  0  0  0  0  0  0  0  0  0
    9.5720   -7.2865    0.0000 O   0  0  0  0  0  0  0  0  0  0  0  0
    8.1431   -6.4615    0.0000 O   0  0  0  0  0  0  0  0  0  0  0  0
    8.1431   -4.8115    0.0000 C   0  0  0  0  0  0  0  0  0  0  0  0
    7.4286   -5.2240    0.0000 O   0  0  0  0  0  0  0  0  0  0  0  0
   10.9712   -1.7302    0.0000 O   0  0  0  0  0  0  0  0  0  0  0  0
  1  2  1  0  0  0  0
  1  3  1  0  0  0  0
  2  4  1  0  0  0  0
  3  5  1  0  0  0  0
  4  6  1  0  0  0  0
  5  6  1  0  0  0  0
  2  7  1  1  0  0  0
  4  8  1  1  0  0  0
  6  9  1  6  0  0  0
  5 10  1  1  0  0  0
 10 11  1  0  0  0  0
 12 13  1  0  0  0  0
 12 14  1  0  0  0  0
 13 15  1  0  0  0  0
 14 16  1  0  0  0  0
 15 17  1  0  0  0  0
 16 17  1  0  0  0  0
 13 18  1  1  0  0  0
 15 19  1  1  0  0  0
 17 20  1  6  0  0  0
 16 21  1  1  0  0  0
 22 21  1  0  0  0  0
 23 24  1  0  0  0  0
 23 25  1  0  0  0  0
 24 26  1  0  0  0  0
 25 27  1  0  0  0  0
 26 28  1  0  0  0  0
 27 28  1  0  0  0  0
 23 18  1  6  0  0  0
 24 29  1  1  0  0  0
 26 30  1  1  0  0  0
 28 31  1  6  0  0  0
 27 32  1  1  0  0  0
 33 32  1  0  0  0  0
 12 34  1  0  0  0  0
  1 29  1  6  0  0  0
M  END
> <ID>
CHEBI:61613

> <NAME>
alpha-D-Manp-(1->2)-alpha-D-Manp-(1->2)-D-Manp

> <DEFINITION>
A linear trisaccharide consisting of three D-mannose units joined by α-(1→2)-linkages

> <STAR>
3

> <SYNONYM>
alpha-D-mannosyl-(1->2)-alpha-D-mannosyl-(1->2)-D-mannose; alpha-D-Man-(1->2)-alpha-D-Man-(1->2)-D-Man; (Man)3

> <IUPAC_NAME>
alpha-D-mannopyranosyl-(1->2)-alpha-D-mannopyranosyl-(1->2)-D-mannopyranose

> <FORMULA>
C18H32O16

> <MASS>
504.43710

> <MONOISOTOPIC_MASS>
504.16903

> <CHARGE>
0

> <SMILES>
OC[C@H]1OC(O)[C@@H](O[C@H]2O[C@H](CO)[C@@H](O)[C@H](O)[C@@H]2O[C@H]2O[C@H](CO)[C@@H](O)[C@H](O)[C@@H]2O)[C@@H](O)[C@@H]1O

> <INCHI>
InChI=1S/C18H32O16/c19-1-4-8(23)11(26)14(16(29)30-4)33-18-15(12(27)9(24)6(3-21)32-18)34-17-13(28)10(25)7(22)5(2-20)31-17/h4-29H,1-3H2/t4-,5-,6-,7-,8-,9-,10+,11+,12+,13+,14+,15+,16?,17-,18-/m1/s1

> <INCHIKEY>
UQBIAGWOJDEOMN-CCFXQEQMSA-N

> <REAXYS_REGISTRY_NUMBER>
4215899

> <KEGG_GLYCAN_ACCESSION>
G00418

> <PUBMED_CITATION>
1368530; 2164449; 8898075

$$$$

Marvin  03081116462D          

 45 48  0  0  1  0            999 V2000
    7.3677   -4.9159    0.0000 C   0  0  2  0  0  0  0  0  0  0  0  0
    7.3677   -5.7409    0.0000 C   0  0  2  0  0  0  0  0  0  0  0  0
    6.6532   -4.5034    0.0000 O   0  0  0  0  0  0  0  0  0  0  0  0
    6.6532   -6.1534    0.0000 C   0  0  2  0  0  0  0  0  0  0  0  0
    5.9388   -4.9159    0.0000 C   0  0  1  0  0  0  0  0  0  0  0  0
    5.9388   -5.7409    0.0000 C   0  0  1  0  0  0  0  0  0  0  0  0
    8.0821   -6.1534    0.0000 O   0  0  0  0  0  0  0  0  0  0  0  0
    6.6532   -6.9784    0.0000 O   0  0  0  0  0  0  0  0  0  0  0  0
    5.2242   -6.1534    0.0000 O   0  0  0  0  0  0  0  0  0  0  0  0
    5.2242   -4.5034    0.0000 C   0  0  0  0  0  0  0  0  0  0  0  0
    4.5098   -4.9159    0.0000 O   0  0  0  0  0  0  0  0  0  0  0  0
    8.0822   -4.5034    0.0000 O   0  0  0  0  0  0  0  0  0  0  0  0
    9.5111   -4.5034    0.0000 C   0  0  2  0  0  0  0  0  0  0  0  0
    8.7967   -4.0909    0.0000 C   0  0  2  0  0  0  0  0  0  0  0  0
   10.2256   -4.0911    0.0000 O   0  0  0  0  0  0  0  0  0  0  0  0
    8.7967   -3.2659    0.0000 C   0  0  2  0  0  0  0  0  0  0  0  0
   10.2256   -3.2661    0.0000 C   0  0  1  0  0  0  0  0  0  0  0  0
    9.5111   -2.8536    0.0000 C   0  0  1  0  0  0  0  0  0  0  0  0
    8.0823   -2.8533    0.0000 O   0  0  0  0  0  0  0  0  0  0  0  0
    9.5112   -2.0286    0.0000 O   0  0  0  0  0  0  0  0  0  0  0  0
   10.9401   -2.8536    0.0000 C   0  0  0  0  0  0  0  0  0  0  0  0
   10.9401   -2.0286    0.0000 O   0  0  0  0  0  0  0  0  0  0  0  0
    9.5110   -5.3284    0.0000 O   0  0  0  0  0  0  0  0  0  0  0  0
   14.5121   -8.2158    0.0000 C   0  0  0  0  0  0  0  0  0  0  0  0
   14.5121   -9.0408    0.0000 C   0  0  2  0  0  0  0  0  0  0  0  0
   13.7976   -7.8033    0.0000 O   0  0  0  0  0  0  0  0  0  0  0  0
   13.7976   -9.4533    0.0000 C   0  0  2  0  0  0  0  0  0  0  0  0
   13.0832   -8.2158    0.0000 C   0  0  1  0  0  0  0  0  0  0  0  0
   13.0832   -9.0408    0.0000 C   0  0  1  0  0  0  0  0  0  0  0  0
   15.2266   -7.8033    0.0000 O   0  0  0  0  0  0  0  0  0  0  0  0
   15.2266   -9.4533    0.0000 O   0  0  0  0  0  0  0  0  0  0  0  0
   13.7976  -10.2783    0.0000 O   0  0  0  0  0  0  0  0  0  0  0  0
   12.3688   -9.4533    0.0000 O   0  0  0  0  0  0  0  0  0  0  0  0
   12.3688   -7.8033    0.0000 C   0  0  0  0  0  0  0  0  0  0  0  0
   11.6543   -8.2158    0.0000 O   0  0  0  0  0  0  0  0  0  0  0  0
   10.9398   -7.8033    0.0000 C   0  0  2  0  0  0  0  0  0  0  0  0
   10.2254   -8.2158    0.0000 C   0  0  2  0  0  0  0  0  0  0  0  0
   10.9399   -6.9783    0.0000 O   0  0  0  0  0  0  0  0  0  0  0  0
    9.5109   -7.8033    0.0000 C   0  0  2  0  0  0  0  0  0  0  0  0
   10.2254   -6.5659    0.0000 C   0  0  1  0  0  0  0  0  0  0  0  0
    9.5109   -6.9783    0.0000 C   0  0  1  0  0  0  0  0  0  0  0  0
   10.2254   -9.0408    0.0000 O   0  0  0  0  0  0  0  0  0  0  0  0
    8.7964   -8.2158    0.0000 O   0  0  0  0  0  0  0  0  0  0  0  0
    8.7965   -6.5659    0.0000 O   0  0  0  0  0  0  0  0  0  0  0  0
   10.2254   -5.7409    0.0000 C   0  0  0  0  0  0  0  0  0  0  0  0
  1  2  1  0  0  0  0
  1  3  1  0  0  0  0
  2  4  1  0  0  0  0
  3  5  1  0  0  0  0
  4  6  1  0  0  0  0
  5  6  1  0  0  0  0
  2  7  1  1  0  0  0
  4  8  1  1  0  0  0
  6  9  1  6  0  0  0
  5 10  1  1  0  0  0
 10 11  1  0  0  0  0
  1 12  1  6  0  0  0
 13 14  1  0  0  0  0
 13 15  1  0  0  0  0
 14 16  1  0  0  0  0
 15 17  1  0  0  0  0
 16 18  1  0  0  0  0
 17 18  1  0  0  0  0
 14 12  1  1  0  0  0
 16 19  1  1  0  0  0
 18 20  1  6  0  0  0
 17 21  1  1  0  0  0
 22 21  1  0  0  0  0
 13 23  1  6  0  0  0
 24 25  1  0  0  0  0
 24 26  1  0  0  0  0
 25 27  1  0  0  0  0
 26 28  1  0  0  0  0
 27 29  1  0  0  0  0
 28 29  1  0  0  0  0
 24 30  1  0  0  0  0
 25 31  1  1  0  0  0
 27 32  1  1  0  0  0
 29 33  1  6  0  0  0
 28 34  1  1  0  0  0
 35 34  1  0  0  0  0
 36 37  1  0  0  0  0
 36 38  1  0  0  0  0
 37 39  1  0  0  0  0
 38 40  1  0  0  0  0
 39 41  1  0  0  0  0
 40 41  1  0  0  0  0
 36 35  1  6  0  0  0
 37 42  1  1  0  0  0
 39 43  1  1  0  0  0
 41 44  1  6  0  0  0
 40 45  1  1  0  0  0
 23 45  1  0  0  0  0
M  END
> <ID>
CHEBI:61618

> <NAME>
alpha-D-Manp-(1->2)-alpha-D-Manp-(1->6)-alpha-D-Manp-(1->6)-D-Manp

> <DEFINITION>
A mannotetrose comprising four D-mannose residues joined by α-(1→2)-, α-(1→6)- and α-(1→6)-linkages.

> <STAR>
3

> <SYNONYM>
alpha-D-mannosyl-(1->2)-alpha-D-mannosyl-(1->6)-alpha-D-mannosyl-(1->6)-D-mannose; alpha-D-Man-(1->2)-alpha-D-Man-(1->6)-alpha-D-Man-(1->6)-D-Man; (Man)4

> <IUPAC_NAME>
alpha-D-mannopyranosyl-(1->2)-alpha-D-mannopyranosyl-(1->6)-alpha-D-mannopyranosyl-(1->6)-D-mannopyranose

> <FORMULA>
C24H42O21

> <MASS>
666.57770

> <MONOISOTOPIC_MASS>
666.22186

> <CHARGE>
0

> <SMILES>
OC[C@H]1O[C@H](O[C@H]2[C@@H](O)[C@H](O)[C@@H](CO)O[C@@H]2OC[C@H]2O[C@H](OC[C@H]3OC(O)[C@@H](O)[C@@H](O)[C@@H]3O)[C@@H](O)[C@@H](O)[C@@H]2O)[C@@H](O)[C@@H](O)[C@@H]1O

> <INCHI>
InChI=1S/C24H42O21/c25-1-5-9(27)14(32)19(37)23(42-5)45-20-16(34)10(28)6(2-26)43-24(20)40-4-8-12(30)15(33)18(36)22(44-8)39-3-7-11(29)13(31)17(35)21(38)41-7/h5-38H,1-4H2/t5-,6-,7-,8-,9-,10-,11-,12-,13+,14+,15+,16+,17+,18+,19+,20+,21?,22+,23-,24+/m1/s1

> <INCHIKEY>
OWQDEWKZZAJJQK-FSSALSTQSA-N

> <KEGG_GLYCAN_ACCESSION>
G01369

> <PUBMED_CITATION>
1368530

$$$$

Marvin  03081117052D          

 45 48  0  0  1  0            999 V2000
   10.8101   -6.8052    0.0000 C   0  0  2  0  0  0  0  0  0  0  0  0
   10.8101   -7.6302    0.0000 C   0  0  2  0  0  0  0  0  0  0  0  0
   10.0956   -6.3926    0.0000 O   0  0  0  0  0  0  0  0  0  0  0  0
   10.0956   -8.0426    0.0000 C   0  0  2  0  0  0  0  0  0  0  0  0
    9.3811   -6.8051    0.0000 C   0  0  1  0  0  0  0  0  0  0  0  0
    9.3810   -7.6301    0.0000 C   0  0  1  0  0  0  0  0  0  0  0  0
   11.6437   -8.8380    0.0000 O   0  0  0  0  0  0  0  0  0  0  0  0
   10.0953   -8.8676    0.0000 O   0  0  0  0  0  0  0  0  0  0  0  0
    8.6666   -8.0425    0.0000 O   0  0  0  0  0  0  0  0  0  0  0  0
    8.6667   -6.3926    0.0000 C   0  0  0  0  0  0  0  0  0  0  0  0
    7.9522   -6.8050    0.0000 O   0  0  0  0  0  0  0  0  0  0  0  0
   11.5245   -6.3928    0.0000 O   0  0  0  0  0  0  0  0  0  0  0  0
   10.8101   -2.6803    0.0000 O   0  0  0  0  0  0  0  0  0  0  0  0
   15.8113   -5.5679    0.0000 C   0  0  0  0  0  0  0  0  0  0  0  0
   15.8113   -6.3928    0.0000 C   0  0  2  0  0  0  0  0  0  0  0  0
   15.0968   -5.1554    0.0000 O   0  0  0  0  0  0  0  0  0  0  0  0
   15.0968   -6.8053    0.0000 C   0  0  2  0  0  0  0  0  0  0  0  0
   14.3824   -5.5679    0.0000 C   0  0  1  0  0  0  0  0  0  0  0  0
   14.3824   -6.3928    0.0000 C   0  0  1  0  0  0  0  0  0  0  0  0
   16.5258   -5.1554    0.0000 O   0  0  0  0  0  0  0  0  0  0  0  0
   16.5258   -6.8053    0.0000 O   0  0  0  0  0  0  0  0  0  0  0  0
   15.0968   -7.6303    0.0000 O   0  0  0  0  0  0  0  0  0  0  0  0
   13.6679   -6.8053    0.0000 O   0  0  0  0  0  0  0  0  0  0  0  0
   13.6679   -5.1554    0.0000 C   0  0  0  0  0  0  0  0  0  0  0  0
   12.9535   -5.5679    0.0000 O   0  0  0  0  0  0  0  0  0  0  0  0
   12.2390   -5.1554    0.0000 C   0  0  2  0  0  0  0  0  0  0  0  0
   11.5245   -5.5679    0.0000 C   0  0  2  0  0  0  0  0  0  0  0  0
   12.2390   -4.3303    0.0000 O   0  0  0  0  0  0  0  0  0  0  0  0
   10.8101   -5.1554    0.0000 C   0  0  2  0  0  0  0  0  0  0  0  0
   11.5245   -3.9178    0.0000 C   0  0  1  0  0  0  0  0  0  0  0  0
   10.8101   -4.3303    0.0000 C   0  0  1  0  0  0  0  0  0  0  0  0
   10.0956   -5.5676    0.0000 O   0  0  0  0  0  0  0  0  0  0  0  0
   10.0956   -3.9178    0.0000 O   0  0  0  0  0  0  0  0  0  0  0  0
   11.5245   -3.0928    0.0000 C   0  0  0  0  0  0  0  0  0  0  0  0
   10.8797   -9.8569    0.0000 C   0  0  2  0  0  0  0  0  0  0  0  0
   10.8797  -10.6818    0.0000 C   0  0  2  0  0  0  0  0  0  0  0  0
   10.1652   -9.4442    0.0000 O   0  0  0  0  0  0  0  0  0  0  0  0
   10.1651  -11.0943    0.0000 C   0  0  2  0  0  0  0  0  0  0  0  0
    9.4507   -9.8567    0.0000 C   0  0  1  0  0  0  0  0  0  0  0  0
    9.4506  -10.6818    0.0000 C   0  0  1  0  0  0  0  0  0  0  0  0
   11.5940  -11.0943    0.0000 O   0  0  0  0  0  0  0  0  0  0  0  0
   10.1649  -11.9193    0.0000 O   0  0  0  0  0  0  0  0  0  0  0  0
    8.7362  -11.0942    0.0000 O   0  0  0  0  0  0  0  0  0  0  0  0
    8.7363   -9.4442    0.0000 C   0  0  0  0  0  0  0  0  0  0  0  0
    8.0218   -9.8567    0.0000 O   0  0  0  0  0  0  0  0  0  0  0  0
  1  2  1  0  0  0  0
  1  3  1  0  0  0  0
  2  4  1  0  0  0  0
  3  5  1  0  0  0  0
  4  6  1  0  0  0  0
  5  6  1  0  0  0  0
  2  7  1  1  0  0  0
  4  8  1  1  0  0  0
  6  9  1  6  0  0  0
  5 10  1  1  0  0  0
 11 10  1  0  0  0  0
  1 12  1  6  0  0  0
 14 15  1  0  0  0  0
 14 16  1  0  0  0  0
 15 17  1  0  0  0  0
 16 18  1  0  0  0  0
 17 19  1  0  0  0  0
 18 19  1  0  0  0  0
 14 20  1  0  0  0  0
 15 21  1  1  0  0  0
 17 22  1  1  0  0  0
 19 23  1  6  0  0  0
 18 24  1  1  0  0  0
 25 24  1  0  0  0  0
 26 27  1  0  0  0  0
 26 28  1  0  0  0  0
 27 29  1  0  0  0  0
 28 30  1  0  0  0  0
 29 31  1  0  0  0  0
 30 31  1  0  0  0  0
 26 25  1  6  0  0  0
 27 12  1  1  0  0  0
 29 32  1  1  0  0  0
 31 33  1  6  0  0  0
 30 34  1  1  0  0  0
 13 34  1  0  0  0  0
 35 36  1  0  0  0  0
 35 37  1  0  0  0  0
 36 38  1  0  0  0  0
 37 39  1  0  0  0  0
 38 40  1  0  0  0  0
 39 40  1  0  0  0  0
 36 41  1  1  0  0  0
 38 42  1  1  0  0  0
 40 43  1  6  0  0  0
 39 44  1  1  0  0  0
 45 44  1  0  0  0  0
 35  7  1  6  0  0  0
M  END
> <ID>
CHEBI:61620

> <NAME>
alpha-D-Manp-(1->2)-alpha-D-Manp-(1->2)-alpha-D-Manp-(1->6)-D-Manp

> <DEFINITION>
A linear tetrasaccharide in which four mannopyranose residues are joined by α-(1→2)-, α-(1→2)- and α-(1→6)-linkages.

> <STAR>
3

> <SYNONYM>
alpha-D-mannosyl-(1->2)-alpha-D-mannosyl-(1->2)-alpha-D-mannosyl-(1->6)-D-mannose; alpha-D-Man-(1->2)-alpha-D-Man-(1->2)-alpha-D-Man-(1->6)-D-Man; (Man)4

> <IUPAC_NAME>
alpha-D-mannopyranosyl-(1->2)-alpha-D-mannopyranosyl-(1->2)-alpha-D-mannopyranosyl-(1->6)-D-mannopyranose

> <FORMULA>
C24H42O21

> <MASS>
666.57770

> <MONOISOTOPIC_MASS>
666.22186

> <CHARGE>
0

> <SMILES>
OC[C@H]1O[C@H](O[C@H]2[C@@H](O)[C@H](O)[C@@H](CO)O[C@@H]2O[C@H]2[C@@H](O)[C@H](O)[C@@H](CO)O[C@@H]2OC[C@H]2OC(O)[C@@H](O)[C@@H](O)[C@@H]2O)[C@@H](O)[C@@H](O)[C@@H]1O

> <INCHI>
InChI=1S/C24H42O21/c25-1-5-9(28)14(33)18(37)22(41-5)44-20-16(35)11(30)7(3-27)43-24(20)45-19-15(34)10(29)6(2-26)42-23(19)39-4-8-12(31)13(32)17(36)21(38)40-8/h5-38H,1-4H2/t5-,6-,7-,8-,9-,10-,11-,12-,13+,14+,15+,16+,17+,18+,19+,20+,21?,22-,23+,24-/m1/s1

> <INCHIKEY>
KKMMOTKOMKVHGW-MWFILZMISA-N

> <KEGG_GLYCAN_ACCESSION>
G03287

> <PUBMED_CITATION>
1368530

$$$$

Marvin  03091116562D          

 50 53  0  0  1  0            999 V2000
   11.3355   -3.3567    0.0000 C   0  0  1  0  0  0  0  0  0  0  0  0
   11.3355   -4.1817    0.0000 C   0  0  1  0  0  0  0  0  0  0  0  0
   10.6211   -2.9442    0.0000 O   0  0  0  0  0  0  0  0  0  0  0  0
   10.6211   -4.5942    0.0000 C   0  0  2  0  0  0  0  0  0  0  0  0
    9.9067   -3.3567    0.0000 C   0  0  1  0  0  0  0  0  0  0  0  0
    9.9067   -4.1817    0.0000 C   0  0  2  0  0  0  0  0  0  0  0  0
   12.0500   -2.9442    0.0000 O   0  0  0  0  0  0  0  0  0  0  0  0
   12.0500   -4.5942    0.0000 O   0  0  0  0  0  0  0  0  0  0  0  0
   10.6211   -5.4191    0.0000 O   0  0  0  0  0  0  0  0  0  0  0  0
    9.1921   -4.5942    0.0000 O   0  0  0  0  0  0  0  0  0  0  0  0
    9.1921   -2.9442    0.0000 C   0  0  0  0  0  0  0  0  0  0  0  0
    8.4778   -3.3567    0.0000 O   0  0  0  0  0  0  0  0  0  0  0  0
    9.9067   -5.8316    0.0000 C   0  0  2  0  0  0  0  0  0  0  0  0
    9.9067   -6.6566    0.0000 C   0  0  1  0  0  0  0  0  0  0  0  0
    9.1921   -5.4191    0.0000 O   0  0  0  0  0  0  0  0  0  0  0  0
    9.1921   -7.0690    0.0000 C   0  0  2  0  0  0  0  0  0  0  0  0
    8.4778   -5.8316    0.0000 C   0  0  1  0  0  0  0  0  0  0  0  0
    8.4778   -6.6566    0.0000 C   0  0  2  0  0  0  0  0  0  0  0  0
   10.6211   -7.0690    0.0000 N   0  0  0  0  0  0  0  0  0  0  0  0
    9.1921   -7.8940    0.0000 O   0  0  0  0  0  0  0  0  0  0  0  0
    7.7633   -7.0690    0.0000 O   0  0  0  0  0  0  0  0  0  0  0  0
    7.7633   -5.4191    0.0000 C   0  0  0  0  0  0  0  0  0  0  0  0
    7.0488   -5.8316    0.0000 O   0  0  0  0  0  0  0  0  0  0  0  0
   12.7644   -5.8316    0.0000 O   0  0  0  0  0  0  0  0  0  0  0  0
   13.4788   -6.2441    0.0000 C   0  0  2  0  0  0  0  0  0  0  0  0
   12.7644   -5.0066    0.0000 C   0  0  2  0  0  0  0  0  0  0  0  0
   13.4788   -4.5941    0.0000 C   0  0  2  0  0  0  0  0  0  0  0  0
   14.1934   -5.0067    0.0000 C   0  0  1  0  0  0  0  0  0  0  0  0
   14.1934   -5.8317    0.0000 C   0  0  2  0  0  0  0  0  0  0  0  0
   13.4791   -3.7692    0.0000 O   0  0  0  0  0  0  0  0  0  0  0  0
   14.9078   -4.5942    0.0000 O   0  0  0  0  0  0  0  0  0  0  0  0
   14.9078   -6.2441    0.0000 O   0  0  0  0  0  0  0  0  0  0  0  0
   13.4788   -7.0691    0.0000 C   0  0  0  0  0  0  0  0  0  0  0  0
   10.6211   -7.8940    0.0000 C   0  0  0  0  0  0  0  0  0  0  0  0
   11.3356   -8.3064    0.0000 O   0  0  0  0  0  0  0  0  0  0  0  0
    9.9067   -8.3065    0.0000 C   0  0  0  0  0  0  0  0  0  0  0  0
   13.4791   -0.4693    0.0000 O   0  0  0  0  0  0  0  0  0  0  0  0
   12.7646   -0.8818    0.0000 C   0  0  0  0  0  0  0  0  0  0  0  0
   12.7646   -1.7068    0.0000 C   0  0  1  0  0  0  0  0  0  0  0  0
   12.0500   -0.4693    0.0000 O   0  0  0  0  0  0  0  0  0  0  0  0
   12.0500   -2.1192    0.0000 C   0  0  2  0  0  0  0  0  0  0  0  0
   11.3356   -0.8818    0.0000 C   0  0  1  0  0  0  0  0  0  0  0  0
   11.3356   -1.7068    0.0000 C   0  0  2  0  0  0  0  0  0  0  0  0
   13.4791   -2.1192    0.0000 N   0  0  0  0  0  0  0  0  0  0  0  0
   10.6212   -2.1192    0.0000 O   0  0  0  0  0  0  0  0  0  0  0  0
   10.6212   -0.4693    0.0000 C   0  0  0  0  0  0  0  0  0  0  0  0
    9.9066   -0.8818    0.0000 O   0  0  0  0  0  0  0  0  0  0  0  0
   14.1934   -1.7067    0.0000 C   0  0  0  0  0  0  0  0  0  0  0  0
   14.1934   -0.8818    0.0000 O   0  0  0  0  0  0  0  0  0  0  0  0
   14.9079   -2.1192    0.0000 C   0  0  0  0  0  0  0  0  0  0  0  0
  1  2  1  0  0  0  0
  1  3  1  0  0  0  0
  2  4  1  0  0  0  0
  3  5  1  0  0  0  0
  4  6  1  0  0  0  0
  5  6  1  0  0  0  0
  1  7  1  1  0  0  0
  2  8  1  6  0  0  0
  4  9  1  1  0  0  0
  6 10  1  1  0  0  0
  5 11  1  1  0  0  0
 12 11  1  0  0  0  0
 13 14  1  0  0  0  0
 13 15  1  0  0  0  0
 14 16  1  0  0  0  0
 15 17  1  0  0  0  0
 16 18  1  0  0  0  0
 17 18  1  0  0  0  0
 13  9  1  6  0  0  0
 14 19  1  6  0  0  0
 16 20  1  1  0  0  0
 18 21  1  1  0  0  0
 17 22  1  1  0  0  0
 23 22  1  0  0  0  0
 25 24  1  0  0  0  0
 26 24  1  0  0  0  0
 26  8  1  1  0  0  0
 26 27  1  0  0  0  0
 27 30  1  1  0  0  0
 27 28  1  0  0  0  0
 28 31  1  6  0  0  0
 28 29  1  0  0  0  0
 29 25  1  0  0  0  0
 29 32  1  6  0  0  0
 25 33  1  6  0  0  0
 35 34  2  0  0  0  0
 36 34  1  0  0  0  0
 19 34  1  0  0  0  0
 38 39  1  0  0  0  0
 38 40  1  0  0  0  0
 39 41  1  0  0  0  0
 40 42  1  0  0  0  0
 41 43  1  0  0  0  0
 42 43  1  0  0  0  0
 38 37  1  0  0  0  0
 39 44  1  6  0  0  0
 41  7  1  1  0  0  0
 43 45  1  1  0  0  0
 42 46  1  1  0  0  0
 47 46  1  0  0  0  0
 49 48  2  0  0  0  0
 50 48  1  0  0  0  0
 44 48  1  0  0  0  0
M  END
> <ID>
CHEBI:61635

> <NAME>
alpha-D-GalpNAc-(1->3)-[alpha-L-Fucp-(1->2)]-beta-D-Galp-(1->3)-D-GalpNAc

> <DEFINITION>
A branched amino tetrasaccharide comprising N-acetyl-D-galactosamine at the reducing end with a N-acetyl-α-D-galactosaminyl-(1→3)-[α-L-fucosyl-(1→2)]-β-D-galactosyl moiety attached at the 3-position.

> <STAR>
3

> <SYNONYM>
N-acetyl-alpha-D-galactosaminyl-(1->3)-[alpha-L-fucosyl-(1->2)]-beta-D-galactosyl-(1->3)-N-acetyl-D-galactosamine; alpha-D-GalNAc-(1->3)-[alpha-L-Fuc-(1->2)]-beta-D-Gal-(1->3)-D-GalNAc; 2-acetamido-2-deoxy-alpha-D-galactopyranosyl-(1->3)-[6-deoxy-alpha-L-galactopyranosyl-(1->2)]-beta-D-galactopyranosyl-(1->3)-2-acetamido-2-deoxy-D-galactopyranose; (Gal)1 (GalNAc)2 (LFuc)1

> <IUPAC_NAME>
2-acetamido-2-deoxy-alpha-D-galactopyranosyl-(1->3)-[alpha-L-fucopyranosyl-(1->2)]-beta-D-galactopyranosyl-(1->3)-2-acetamido-2-deoxy-D-galactopyranose

> <FORMULA>
C28H48N2O20

> <MASS>
732.68210

> <MONOISOTOPIC_MASS>
732.28004

> <CHARGE>
0

> <SMILES>
C[C@@H]1O[C@@H](O[C@H]2[C@@H](O[C@H](CO)[C@H](O)[C@@H]2O[C@H]2O[C@H](CO)[C@H](O)[C@H](O)[C@H]2NC(C)=O)O[C@H]2[C@@H](O)[C@@H](CO)OC(O)[C@@H]2NC(C)=O)[C@@H](O)[C@H](O)[C@@H]1O

> <INCHI>
InChI=1S/C28H48N2O20/c1-7-15(36)20(41)21(42)27(44-7)50-24-23(49-26-13(29-8(2)34)19(40)16(37)10(4-31)46-26)18(39)12(6-33)47-28(24)48-22-14(30-9(3)35)25(43)45-11(5-32)17(22)38/h7,10-28,31-33,36-43H,4-6H2,1-3H3,(H,29,34)(H,30,35)/t7-,10+,11+,12+,13+,14+,15+,16-,17-,18-,19+,20+,21-,22+,23-,24+,25?,26+,27-,28-/m0/s1

> <INCHIKEY>
OEMMSBBXHGIOBY-LPXSYPPGSA-N

> <REAXYS_REGISTRY_NUMBER>
9181276

> <KEGG_GLYCAN_ACCESSION>
G00641

> <PUBMED_CITATION>
12007473; 14623089; 2112026

$$$$

Marvin  03141113282D          

 23 24  0  0  1  0            999 V2000
    6.6242   -7.7211    0.0000 C   0  0  2  0  0  0  0  0  0  0  0  0
    6.6242   -8.5460    0.0000 C   0  0  2  0  0  0  0  0  0  0  0  0
    5.9098   -7.3085    0.0000 O   0  0  0  0  0  0  0  0  0  0  0  0
    5.9097   -8.9585    0.0000 C   0  0  2  0  0  0  0  0  0  0  0  0
    5.1953   -7.7210    0.0000 C   0  0  1  0  0  0  0  0  0  0  0  0
    5.1953   -8.5460    0.0000 C   0  0  1  0  0  0  0  0  0  0  0  0
    7.3386   -8.9585    0.0000 O   0  0  0  0  0  0  0  0  0  0  0  0
    5.9096   -9.7835    0.0000 O   0  0  0  0  0  0  0  0  0  0  0  0
    4.4808   -8.9583    0.0000 O   0  0  0  0  0  0  0  0  0  0  0  0
    4.4809   -7.3085    0.0000 C   0  0  0  0  0  0  0  0  0  0  0  0
    3.7665   -7.7208    0.0000 O   0  0  0  0  0  0  0  0  0  0  0  0
    7.3387   -7.3086    0.0000 O   0  0  0  0  0  0  0  0  0  0  0  0
    8.0532   -5.2462    0.0000 C   0  0  2  0  0  0  0  0  0  0  0  0
    8.0532   -6.0712    0.0000 C   0  0  2  0  0  0  0  0  0  0  0  0
    7.3387   -4.8337    0.0000 O   0  0  0  0  0  0  0  0  0  0  0  0
    7.3387   -6.4837    0.0000 C   0  0  2  0  0  0  0  0  0  0  0  0
    6.6243   -5.2462    0.0000 C   0  0  1  0  0  0  0  0  0  0  0  0
    6.6243   -6.0712    0.0000 C   0  0  1  0  0  0  0  0  0  0  0  0
    8.7677   -4.8337    0.0000 O   0  0  0  0  0  0  0  0  0  0  0  0
    8.7677   -6.4837    0.0000 O   0  0  0  0  0  0  0  0  0  0  0  0
    5.9098   -6.4837    0.0000 O   0  0  0  0  0  0  0  0  0  0  0  0
    5.9098   -4.8337    0.0000 C   0  0  0  0  0  0  0  0  0  0  0  0
    5.1953   -5.2462    0.0000 O   0  0  0  0  0  0  0  0  0  0  0  0
  1  2  1  0  0  0  0
  1  3  1  0  0  0  0
  2  4  1  0  0  0  0
  3  5  1  0  0  0  0
  4  6  1  0  0  0  0
  5  6  1  0  0  0  0
  2  7  1  1  0  0  0
  4  8  1  1  0  0  0
  6  9  1  6  0  0  0
  5 10  1  1  0  0  0
 11 10  1  0  0  0  0
  1 12  1  6  0  0  0
 13 14  1  0  0  0  0
 13 15  1  0  0  0  0
 14 16  1  0  0  0  0
 15 17  1  0  0  0  0
 16 18  1  0  0  0  0
 17 18  1  0  0  0  0
 13 19  1  6  0  0  0
 14 20  1  1  0  0  0
 16 12  1  1  0  0  0
 18 21  1  6  0  0  0
 17 22  1  1  0  0  0
 23 22  1  0  0  0  0
M  END
> <ID>
CHEBI:61663

> <NAME>
alpha-D-Manp-(1->3)-alpha-D-Manp

> <DEFINITION>
A glycosylmannose consisting of two α-D-mannopyranose residues joined via a (1→3)-linkage.

> <STAR>
3

> <SYNONYM>
alpha-D-mannosyl-(1->3)-alpha-D-mannose; alpha-D-Man-(1->3)-alpha-D-Man; 3-O-(alpha-D-mannopyranosyl)-alpha-D-mannopyranoside; 3-alpha-D-mannopyranosyl-alpha-D-mannopyranose

> <IUPAC_NAME>
3-O-alpha-D-mannopyranosyl-alpha-D-mannopyranose

> <FORMULA>
C12H22O11

> <MASS>
342.29650

> <MONOISOTOPIC_MASS>
342.11621

> <CHARGE>
0

> <SMILES>
OC[C@H]1O[C@H](O[C@@H]2[C@H](O)[C@@H](O)O[C@H](CO)[C@H]2O)[C@@H](O)[C@@H](O)[C@@H]1O

> <INCHI>
InChI=1S/C12H22O11/c13-1-3-5(15)7(17)8(18)12(22-3)23-10-6(16)4(2-14)21-11(20)9(10)19/h3-20H,1-2H2/t3-,4-,5-,6-,7+,8+,9+,10+,11+,12-/m1/s1

> <INCHIKEY>
QIGJYVCQYDKYDW-LBGGPIGOSA-N

> <REAXYS_REGISTRY_NUMBER>
1435322

$$$$

Marvin  03291112072D          

 40 43  0  0  1  0            999 V2000
    9.8628   -3.4856    0.0000 C   0  0  1  0  0  0  0  0  0  0  0  0
    9.8628   -4.3108    0.0000 C   0  0  1  0  0  0  0  0  0  0  0  0
    9.1484   -3.0732    0.0000 O   0  0  0  0  0  0  0  0  0  0  0  0
    9.1484   -4.7233    0.0000 C   0  0  2  0  0  0  0  0  0  0  0  0
    8.4339   -3.4856    0.0000 C   0  0  1  0  0  0  0  0  0  0  0  0
    8.4339   -4.3108    0.0000 C   0  0  1  0  0  0  0  0  0  0  0  0
   10.5773   -3.0732    0.0000 O   0  0  0  0  0  0  0  0  0  0  0  0
   10.5773   -4.7233    0.0000 O   0  0  0  0  0  0  0  0  0  0  0  0
    9.1484   -5.5481    0.0000 O   0  0  0  0  0  0  0  0  0  0  0  0
    7.7195   -4.7233    0.0000 O   0  0  0  0  0  0  0  0  0  0  0  0
    7.7195   -3.0732    0.0000 C   0  0  0  0  0  0  0  0  0  0  0  0
    7.0052   -3.4856    0.0000 O   0  0  0  0  0  0  0  0  0  0  0  0
   11.2917   -3.4858    0.0000 C   0  0  0  0  0  0  0  0  0  0  0  0
    7.0051   -5.1358    0.0000 C   0  0  1  0  0  0  0  0  0  0  0  0
    7.0051   -5.9608    0.0000 C   0  0  1  0  0  0  0  0  0  0  0  0
    6.2905   -4.7233    0.0000 O   0  0  0  0  0  0  0  0  0  0  0  0
    6.2905   -6.3733    0.0000 C   0  0  2  0  0  0  0  0  0  0  0  0
    5.5763   -5.1358    0.0000 C   0  0  1  0  0  0  0  0  0  0  0  0
    5.5763   -5.9608    0.0000 C   0  0  2  0  0  0  0  0  0  0  0  0
    7.7195   -6.3733    0.0000 O   0  0  0  0  0  0  0  0  0  0  0  0
    6.2905   -7.1983    0.0000 O   0  0  0  0  0  0  0  0  0  0  0  0
    4.8617   -6.3733    0.0000 O   0  0  0  0  0  0  0  0  0  0  0  0
    4.8617   -4.7233    0.0000 C   0  0  0  0  0  0  0  0  0  0  0  0
    4.1474   -5.1358    0.0000 O   0  0  0  0  0  0  0  0  0  0  0  0
   12.7207   -3.4858    0.0000 C   0  0  0  0  0  0  0  0  0  0  0  0
   12.7207   -4.3108    0.0000 C   0  0  0  0  0  0  0  0  0  0  0  0
   12.0063   -3.0733    0.0000 C   0  0  0  0  0  0  0  0  0  0  0  0
   12.0063   -4.7233    0.0000 C   0  0  0  0  0  0  0  0  0  0  0  0
   11.2917   -4.3108    0.0000 C   0  0  0  0  0  0  0  0  0  0  0  0
   13.4353   -4.7233    0.0000 N   0  0  0  0  0  0  0  0  0  0  0  0
   14.1497   -4.3108    0.0000 N   0  0  0  0  0  0  0  0  0  0  0  0
   15.5460   -4.3761    0.0000 C   0  0  0  0  0  0  0  0  0  0  0  0
   14.8642   -4.7233    0.0000 C   0  0  0  0  0  0  0  0  0  0  0  0
   14.8316   -5.6136    0.0000 C   0  0  0  0  0  0  0  0  0  0  0  0
   15.5460   -6.0262    0.0000 C   0  0  0  0  0  0  0  0  0  0  0  0
   16.2605   -5.6136    0.0000 C   0  0  0  0  0  0  0  0  0  0  0  0
   16.2605   -4.7886    0.0000 C   0  0  0  0  0  0  0  0  0  0  0  0
   16.9750   -6.0262    0.0000 N   0  0  0  0  0  0  0  0  0  0  0  0
   17.6894   -5.6136    0.0000 C   0  0  0  0  0  0  0  0  0  0  0  0
   16.9750   -6.8512    0.0000 C   0  0  0  0  0  0  0  0  0  0  0  0
  1  2  1  0  0  0  0
  1  3  1  0  0  0  0
  2  4  1  0  0  0  0
  3  5  1  0  0  0  0
  4  6  1  0  0  0  0
  5  6  1  0  0  0  0
  1  7  1  1  0  0  0
  2  8  1  6  0  0  0
  4  9  1  1  0  0  0
  6 10  1  6  0  0  0
  5 11  1  1  0  0  0
 12 11  1  0  0  0  0
  7 13  1  0  0  0  0
 14 15  1  0  0  0  0
 14 16  1  0  0  0  0
 15 17  1  0  0  0  0
 16 18  1  0  0  0  0
 17 19  1  0  0  0  0
 18 19  1  0  0  0  0
 15 20  1  6  0  0  0
 17 21  1  1  0  0  0
 19 22  1  1  0  0  0
 18 23  1  1  0  0  0
 24 23  1  0  0  0  0
 14 10  1  1  0  0  0
 26 25  2  0  0  0  0
 27 25  1  0  0  0  0
 28 26  1  0  0  0  0
 13 27  2  0  0  0  0
 29 28  2  0  0  0  0
 29 13  1  0  0  0  0
 30 26  1  4  0  0  0
 30 31  2  0  0  0  0
 31 33  1  4  0  0  0
 32 33  2  0  0  0  0
 33 34  1  0  0  0  0
 34 35  2  0  0  0  0
 35 36  1  0  0  0  0
 36 37  2  0  0  0  0
 32 37  1  0  0  0  0
 36 38  1  0  0  0  0
 38 39  1  0  0  0  0
 38 40  1  0  0  0  0
M  END
> <ID>
CHEBI:61710

> <NAME>
4-{[4-(dimethylamino)phenyl]diazenyl}phenyl-beta-lactoside

> <DEFINITION>
A glycoside comprising β-lactose having a p-(p-dimethylaminophenylazo)phenyl group at the 1-position.

> <STAR>
3

> <SYNONYM>
p-(p-dimethylaminophenylazo)-phenyl-beta-lactoside; lac dye; 4-{[4-(dimethylamino)phenyl]diazenyl}phenyl beta-D-galactosyl-(1->4)-beta-D-glucoside; 4-{[4-(dimethylamino)phenyl]diazenyl}phenyl 4-O-beta-D-galactopyranosyl-beta-D-glucopyranoside; 4-(4-Dimethylaminophenylazo) beta-lactoside

> <IUPAC_NAME>
4-{[4-(dimethylamino)phenyl]diazenyl}phenyl beta-D-galactopyranosyl-(1->4)-beta-D-glucopyranoside

> <FORMULA>
C26H35N3O11

> <MASS>
565.56960

> <MONOISOTOPIC_MASS>
565.22716

> <CHARGE>
0

> <SMILES>
CN(C)c1ccc(cc1)N=Nc1ccc(O[C@@H]2O[C@H](CO)[C@@H](O[C@@H]3O[C@H](CO)[C@H](O)[C@H](O)[C@H]3O)[C@H](O)[C@H]2O)cc1

> <INCHI>
InChI=1S/C26H35N3O11/c1-29(2)15-7-3-13(4-8-15)27-28-14-5-9-16(10-6-14)37-25-23(36)21(34)24(18(12-31)39-25)40-26-22(35)20(33)19(32)17(11-30)38-26/h3-10,17-26,30-36H,11-12H2,1-2H3/t17-,18-,19+,20+,21-,22-,23-,24-,25-,26+/m1/s1

> <INCHIKEY>
PKTBUSPVTXIOCN-QHIUXXQWSA-N

> <CAS_REGISTRY_NUMBER>
27597-77-9

> <REAXYS_REGISTRY_NUMBER>
72012

> <CHEMIDPLUS>
27597-77-9

> <PUBMED_CITATION>
803530

$$$$

Marvin  03301114382D          

 18 18  0  0  0  0            999 V2000
   11.9611   -6.2215    0.0000 C   0  0  0  0  0  0  0  0  0  0  0  0
   11.2466   -6.6340    0.0000 C   0  0  0  0  0  0  0  0  0  0  0  0
   11.9611   -5.3966    0.0000 C   0  0  0  0  0  0  0  0  0  0  0  0
   10.5322   -6.2215    0.0000 C   0  0  0  0  0  0  0  0  0  0  0  0
   11.2467   -4.9840    0.0000 C   0  0  0  0  0  0  0  0  0  0  0  0
   10.5322   -5.3964    0.0000 C   0  0  0  0  0  0  0  0  0  0  0  0
    9.8177   -6.6339    0.0000 N   0  0  0  0  0  0  0  0  0  0  0  0
   12.6756   -4.9841    0.0000 O   0  0  0  0  0  0  0  0  0  0  0  0
   13.3901   -5.3966    0.0000 P   0  0  0  0  0  0  0  0  0  0  0  0
   14.1047   -4.9841    0.0000 O   0  0  0  0  0  0  0  0  0  0  0  0
   13.3901   -6.2216    0.0000 O   0  0  0  0  0  0  0  0  0  0  0  0
   13.6036   -4.5997    0.0000 O   0  5  0  0  0  0  0  0  0  0  0  0
   14.8191   -5.3966    0.0000 C   0  0  0  0  0  0  0  0  0  0  0  0
   15.5336   -4.9841    0.0000 C   0  0  0  0  0  0  0  0  0  0  0  0
   16.2481   -5.3966    0.0000 N   0  3  0  0  0  0  0  0  0  0  0  0
   16.9625   -4.9841    0.0000 C   0  0  0  0  0  0  0  0  0  0  0  0
   16.2481   -6.2216    0.0000 C   0  0  0  0  0  0  0  0  0  0  0  0
   16.9625   -5.8091    0.0000 C   0  0  0  0  0  0  0  0  0  0  0  0
  2  1  1  0  0  0  0
  3  1  2  0  0  0  0
  4  2  2  0  0  0  0
  5  3  1  0  0  0  0
  6  4  1  0  0  0  0
  6  5  2  0  0  0  0
  7  4  1  0  0  0  0
  3  8  1  0  0  0  0
  8  9  1  0  0  0  0
  9 10  1  0  0  0  0
  9 11  2  0  0  0  0
  9 12  1  0  0  0  0
 10 13  1  0  0  0  0
 13 14  1  0  0  0  0
 14 15  1  0  0  0  0
 15 16  1  0  0  0  0
 15 17  1  0  0  0  0
 15 18  1  0  0  0  0
M  CHG  2  12  -1  15   1
M  END
> <ID>
CHEBI:61718

> <NAME>
p-aminophenylphosphocholine

> <DEFINITION>
A phosphocholine that is the 4-aminophenyl ester of choline phosphate.

> <STAR>
3

> <SYNONYM>
PAPPC; p-Aminophenylphosphorylcholine; APPC; 4-Aminophenylphosphorylcholine; 4-aminophenylphosphocholine; 4-aminophenyl 2-(trimethylammonio)ethyl phosphate

> <IUPAC_NAME>
4-aminophenyl 2-(trimethylazaniumyl)ethyl phosphate

> <FORMULA>
C11H19N2O4P

> <MASS>
274.25330

> <MONOISOTOPIC_MASS>
274.10824

> <CHARGE>
0

> <SMILES>
C[N+](C)(C)CCOP([O-])(=O)Oc1ccc(N)cc1

> <INCHI>
InChI=1S/C11H19N2O4P/c1-13(2,3)8-9-16-18(14,15)17-11-6-4-10(12)5-7-11/h4-7H,8-9,12H2,1-3H3

> <INCHIKEY>
SBUYBNIDQXQZSZ-UHFFFAOYSA-N

> <CAS_REGISTRY_NUMBER>
102185-28-4

> <REAXYS_REGISTRY_NUMBER>
6431113

> <CHEMIDPLUS>
102185-28-4

> <PUBMED_CITATION>
17331532; 6198388; 7690204

$$$$

Marvin  04011114512D          

 38 40  0  0  1  0            999 V2000
   13.1896   -5.2671    0.0000 C   0  0  1  0  0  0  0  0  0  0  0  0
   13.9041   -4.8546    0.0000 C   0  0  1  0  0  0  0  0  0  0  0  0
   13.1896   -6.0921    0.0000 O   0  0  0  0  0  0  0  0  0  0  0  0
   14.6187   -5.2671    0.0000 C   0  0  1  0  0  0  0  0  0  0  0  0
   13.9041   -6.5046    0.0000 C   0  0  2  0  0  0  0  0  0  0  0  0
   14.6185   -6.0920    0.0000 C   0  0  2  0  0  0  0  0  0  0  0  0
   13.9041   -4.0296    0.0000 O   0  0  0  0  0  0  0  0  0  0  0  0
   15.3331   -4.8546    0.0000 O   0  0  0  0  0  0  0  0  0  0  0  0
   15.3331   -6.5046    0.0000 O   0  0  0  0  0  0  0  0  0  0  0  0
   13.9041   -7.3296    0.0000 C   0  0  0  0  0  0  0  0  0  0  0  0
   12.4752   -4.8546    0.0000 O   0  0  0  0  0  0  0  0  0  0  0  0
   11.7606   -3.6171    0.0000 C   0  0  1  0  0  0  0  0  0  0  0  0
   11.7606   -4.4421    0.0000 C   0  0  1  0  0  0  0  0  0  0  0  0
   11.0462   -3.2046    0.0000 O   0  0  0  0  0  0  0  0  0  0  0  0
   11.0462   -4.8546    0.0000 C   0  0  1  0  0  0  0  0  0  0  0  0
   10.3318   -3.6171    0.0000 C   0  0  2  0  0  0  0  0  0  0  0  0
   10.3318   -4.4421    0.0000 C   0  0  2  0  0  0  0  0  0  0  0  0
   12.4752   -3.2046    0.0000 O   0  0  0  0  0  0  0  0  0  0  0  0
   11.0462   -5.6796    0.0000 O   0  0  0  0  0  0  0  0  0  0  0  0
    9.6174   -4.8546    0.0000 O   0  0  0  0  0  0  0  0  0  0  0  0
    9.6174   -3.2046    0.0000 C   0  0  0  0  0  0  0  0  0  0  0  0
   10.3318   -6.0921    0.0000 C   0  0  1  0  0  0  0  0  0  0  0  0
   10.3318   -6.9171    0.0000 C   0  0  1  0  0  0  0  0  0  0  0  0
    9.6172   -5.6796    0.0000 O   0  0  0  0  0  0  0  0  0  0  0  0
    9.6172   -7.3296    0.0000 C   0  0  2  0  0  0  0  0  0  0  0  0
    8.9028   -6.0921    0.0000 C   0  0  1  0  0  0  0  0  0  0  0  0
    8.9028   -6.9171    0.0000 C   0  0  1  0  0  0  0  0  0  0  0  0
   11.0462   -7.3296    0.0000 N   0  0  0  0  0  0  0  0  0  0  0  0
    9.6172   -8.1546    0.0000 O   0  0  0  0  0  0  0  0  0  0  0  0
    8.1882   -7.3296    0.0000 O   0  0  0  0  0  0  0  0  0  0  0  0
    8.1882   -5.6796    0.0000 C   0  0  0  0  0  0  0  0  0  0  0  0
    7.4738   -6.0921    0.0000 O   0  0  0  0  0  0  0  0  0  0  0  0
   11.0462   -8.1546    0.0000 C   0  0  0  0  0  0  0  0  0  0  0  0
   11.7606   -8.5671    0.0000 O   0  0  0  0  0  0  0  0  0  0  0  0
   10.3318   -8.5671    0.0000 C   0  0  0  0  0  0  0  0  0  0  0  0
   12.4752   -2.3796    0.0000 C   0  0  0  0  0  0  0  0  0  0  0  0
   13.1896   -1.9672    0.0000 C   0  0  0  0  0  0  0  0  0  0  0  0
   13.1897   -1.1422    0.0000 C   0  0  0  0  0  0  0  0  0  0  0  0
  1  2  1  0  0  0  0
  1  3  1  0  0  0  0
  2  4  1  0  0  0  0
  3  5  1  0  0  0  0
  4  6  1  0  0  0  0
  5  6  1  0  0  0  0
  2  7  1  6  0  0  0
  4  8  1  6  0  0  0
  6  9  1  1  0  0  0
  5 10  1  6  0  0  0
  1 11  1  1  0  0  0
 12 13  1  0  0  0  0
 12 14  1  0  0  0  0
 13 15  1  0  0  0  0
 14 16  1  0  0  0  0
 15 17  1  0  0  0  0
 16 17  1  0  0  0  0
 12 18  1  1  0  0  0
 13 11  1  6  0  0  0
 15 19  1  6  0  0  0
 17 20  1  1  0  0  0
 16 21  1  6  0  0  0
 22 23  1  0  0  0  0
 22 24  1  0  0  0  0
 23 25  1  0  0  0  0
 24 26  1  0  0  0  0
 25 27  1  0  0  0  0
 26 27  1  0  0  0  0
 22 19  1  1  0  0  0
 23 28  1  6  0  0  0
 25 29  1  1  0  0  0
 27 30  1  6  0  0  0
 26 31  1  1  0  0  0
 32 31  1  0  0  0  0
 34 33  2  0  0  0  0
 35 33  1  0  0  0  0
 28 33  1  0  0  0  0
 18 36  1  0  0  0  0
 36 37  1  0  0  0  0
 37 38  1  0  0  0  0
M  END
> <ID>
CHEBI:61754

> <NAME>
alpha-L-Rhap-(1->2)-[beta-D-GlcpNAc-(1->3)]-alpha-L-Rhap-OPr

> <DEFINITION>
A branched glycoside consiting of propyl α-L-rhamnoside having α-L-rhamnosyl and N-acetyl-β-D-glucosaminyl residues at the 2- and 2-positions respectively.

> <STAR>
3

> <SYNONYM>
propyl N-acetyl-beta-D-glucosaminyl-(1->3)-[alpha-L-rhamnosyl-(1->2)]-alpha-L-rhamnoside; propyl 3-O-(2-acetamido-2-deoxy-beta-D-glucopyranosyl)-2-O-(alpha-L-rhamnopyranosyl)-alpha-L-rhamnopyranoside; propyl 2-acetamido-2-deoxy-beta-D-glucopyranosyl-(1->3)-[6-deoxy-alpha-L-mannopyranosyl-(1->2)]-6-deoxy-alpha-L-mannopyranoside; alpha-L-Rha-(1->2)-[beta-D-GlcNAc-(1->3)]-alpha-L-Rha-OPr

> <IUPAC_NAME>
propyl 2-acetamido-2-deoxy-beta-D-glucopyranosyl-(1->3)-[alpha-L-rhamnopyranosyl-(1->2)]-alpha-L-rhamnopyranoside

> <FORMULA>
C23H41NO14

> <MASS>
555.56990

> <MONOISOTOPIC_MASS>
555.25271

> <CHARGE>
0

> <SMILES>
CCCO[C@@H]1O[C@@H](C)[C@H](O)[C@@H](O[C@@H]2O[C@H](CO)[C@@H](O)[C@H](O)[C@H]2NC(C)=O)[C@H]1O[C@@H]1O[C@@H](C)[C@H](O)[C@@H](O)[C@H]1O

> <INCHI>
InChI=1S/C23H41NO14/c1-5-6-33-23-20(38-22-18(32)17(31)13(27)8(2)34-22)19(14(28)9(3)35-23)37-21-12(24-10(4)26)16(30)15(29)11(7-25)36-21/h8-9,11-23,25,27-32H,5-7H2,1-4H3,(H,24,26)/t8-,9-,11+,12+,13-,14-,15+,16+,17+,18+,19+,20+,21-,22-,23+/m0/s1

> <INCHIKEY>
FLAPISCIYDFYOT-MCPWQSSHSA-N

> <REAXYS_REGISTRY_NUMBER>
4773842

> <PUBMED_CITATION>
10723608; 1423345; 1878877; 7577958; 8593633

$$$$

Marvin  04011115482D          

 37 39  0  0  1  0            999 V2000
   14.2731   -1.7492    0.0000 O   0  0  0  0  0  0  0  0  0  0  0  0
   13.5588   -2.1617    0.0000 C   0  0  1  0  0  0  0  0  0  0  0  0
   13.5588   -2.9867    0.0000 C   0  0  1  0  0  0  0  0  0  0  0  0
   12.8443   -1.7492    0.0000 O   0  0  0  0  0  0  0  0  0  0  0  0
   12.8443   -3.3992    0.0000 C   0  0  2  0  0  0  0  0  0  0  0  0
   12.1298   -2.1617    0.0000 C   0  0  1  0  0  0  0  0  0  0  0  0
   12.1298   -2.9867    0.0000 C   0  0  1  0  0  0  0  0  0  0  0  0
   14.2731   -3.3992    0.0000 O   0  0  0  0  0  0  0  0  0  0  0  0
   12.8442   -4.2242    0.0000 O   0  0  0  0  0  0  0  0  0  0  0  0
   11.4154   -3.3992    0.0000 O   0  0  0  0  0  0  0  0  0  0  0  0
   11.4154   -1.7492    0.0000 C   0  0  0  0  0  0  0  0  0  0  0  0
   10.7008   -2.1617    0.0000 O   0  0  0  0  0  0  0  0  0  0  0  0
   10.7009   -3.8117    0.0000 C   0  0  1  0  0  0  0  0  0  0  0  0
   10.7009   -4.6367    0.0000 C   0  0  1  0  0  0  0  0  0  0  0  0
    9.9864   -3.3992    0.0000 O   0  0  0  0  0  0  0  0  0  0  0  0
    9.9864   -5.0493    0.0000 C   0  0  2  0  0  0  0  0  0  0  0  0
    9.2720   -3.8117    0.0000 C   0  0  1  0  0  0  0  0  0  0  0  0
    9.2720   -4.6367    0.0000 C   0  0  2  0  0  0  0  0  0  0  0  0
   11.4154   -5.0493    0.0000 O   0  0  0  0  0  0  0  0  0  0  0  0
    9.9863   -5.8743    0.0000 O   0  0  0  0  0  0  0  0  0  0  0  0
    8.5574   -5.0493    0.0000 O   0  0  0  0  0  0  0  0  0  0  0  0
    8.5574   -3.3992    0.0000 C   0  0  0  0  0  0  0  0  0  0  0  0
    7.8431   -3.8117    0.0000 O   0  0  0  0  0  0  0  0  0  0  0  0
    9.2718   -6.2867    0.0000 C   0  0  1  0  0  0  0  0  0  0  0  0
    9.2718   -7.1117    0.0000 C   0  0  1  0  0  0  0  0  0  0  0  0
    8.5574   -5.8743    0.0000 O   0  0  0  0  0  0  0  0  0  0  0  0
    8.5574   -7.5242    0.0000 C   0  0  2  0  0  0  0  0  0  0  0  0
    7.8430   -6.2867    0.0000 C   0  0  1  0  0  0  0  0  0  0  0  0
    7.8430   -7.1117    0.0000 C   0  0  1  0  0  0  0  0  0  0  0  0
    9.9863   -7.5242    0.0000 N   0  0  0  0  0  0  0  0  0  0  0  0
    8.5574   -8.3492    0.0000 O   0  0  0  0  0  0  0  0  0  0  0  0
    7.1285   -7.5242    0.0000 O   0  0  0  0  0  0  0  0  0  0  0  0
    7.1285   -5.8743    0.0000 C   0  0  0  0  0  0  0  0  0  0  0  0
    6.4140   -6.2867    0.0000 O   0  0  0  0  0  0  0  0  0  0  0  0
    9.9863   -8.3492    0.0000 C   0  0  0  0  0  0  0  0  0  0  0  0
   10.7007   -8.7617    0.0000 O   0  0  0  0  0  0  0  0  0  0  0  0
    9.2718   -8.7617    0.0000 C   0  0  0  0  0  0  0  0  0  0  0  0
  2  3  1  0  0  0  0
  2  4  1  0  0  0  0
  3  5  1  0  0  0  0
  4  6  1  0  0  0  0
  5  7  1  0  0  0  0
  6  7  1  0  0  0  0
  2  1  1  1  0  0  0
  3  8  1  6  0  0  0
  5  9  1  1  0  0  0
  7 10  1  6  0  0  0
  6 11  1  1  0  0  0
 12 11  1  0  0  0  0
 13 14  1  0  0  0  0
 13 15  1  0  0  0  0
 14 16  1  0  0  0  0
 15 17  1  0  0  0  0
 16 18  1  0  0  0  0
 17 18  1  0  0  0  0
 13 10  1  1  0  0  0
 14 19  1  6  0  0  0
 16 20  1  1  0  0  0
 18 21  1  1  0  0  0
 17 22  1  1  0  0  0
 23 22  1  0  0  0  0
 24 25  1  0  0  0  0
 24 26  1  0  0  0  0
 25 27  1  0  0  0  0
 26 28  1  0  0  0  0
 27 29  1  0  0  0  0
 28 29  1  0  0  0  0
 24 20  1  1  0  0  0
 25 30  1  6  0  0  0
 27 31  1  1  0  0  0
 29 32  1  6  0  0  0
 28 33  1  1  0  0  0
 34 33  1  0  0  0  0
 36 35  2  0  0  0  0
 37 35  1  0  0  0  0
 30 35  1  0  0  0  0
M  END
> <ID>
CHEBI:61758

> <NAME>
beta-D-GlcpNAc-(1->3)-beta-D-Galp-(1->4)-beta-D-Glcp

> <DEFINITION>
A linear amino trisaccharide consisting of β-D-glucose at the reducing end having an N-acetyl-β-D-glucosaminyl-(1→3)-β-D-galactosyl group attached at the 4-position.

> <STAR>
3

> <SYNONYM>
N-acetyl-beta-D-glucosaminyl-(1->3)-beta-D-galactosyl-(1->4)-beta-D-glucose; GlcNAcbeta1-3Galbeta1-4Glcbeta; GlcNAcb1-3Galb1-4Glcb; beta-D-GlcNAc-(1->3)-beta-D-Gal-(1->4)-beta-D-Glc; (Gal)1 (Glc)1 (GlcNAc)1

> <IUPAC_NAME>
2-acetamido-2-deoxy-beta-D-glucopyranosyl-(1->3)-beta-D-galactopyranosyl-(1->4)-beta-D-glucopyranose

> <FORMULA>
C20H35NO16

> <MASS>
545.48900

> <MONOISOTOPIC_MASS>
545.19558

> <CHARGE>
0

> <SMILES>
CC(=O)N[C@@H]1[C@@H](O)[C@H](O)[C@@H](CO)O[C@H]1O[C@H]1[C@@H](O)[C@@H](CO)O[C@@H](O[C@H]2[C@H](O)[C@@H](O)[C@H](O)O[C@@H]2CO)[C@@H]1O

> <INCHI>
InChI=1S/C20H35NO16/c1-5(25)21-9-12(28)10(26)6(2-22)34-19(9)37-17-11(27)7(3-23)35-20(15(17)31)36-16-8(4-24)33-18(32)14(30)13(16)29/h6-20,22-24,26-32H,2-4H2,1H3,(H,21,25)/t6-,7-,8-,9-,10-,11+,12-,13-,14-,15-,16-,17+,18-,19+,20+/m1/s1

> <INCHIKEY>
CRTJRHPGCOAOQC-QLFGYAPHSA-N

> <REAXYS_REGISTRY_NUMBER>
5786028

> <KEGG_GLYCAN_ACCESSION>
G01380

> <PUBMED_CITATION>
18678667; 19443021; 25568069; 31537530; 6192144

$$$$

Marvin  04011116082D          

 14 14  0  0  1  0            999 V2000
   11.9006   -4.8047    0.0000 O   0  0  0  0  0  0  0  0  0  0  0  0
   11.1861   -5.2172    0.0000 C   0  0  0  0  0  0  0  0  0  0  0  0
   10.4717   -4.8047    0.0000 O   0  0  0  0  0  0  0  0  0  0  0  0
   10.4717   -6.4547    0.0000 C   0  0  2  0  0  0  0  0  0  0  0  0
    9.7572   -5.2172    0.0000 C   0  0  1  0  0  0  0  0  0  0  0  0
   11.1861   -6.0422    0.0000 C   0  0  1  0  0  0  0  0  0  0  0  0
    9.7572   -6.0422    0.0000 C   0  0  2  0  0  0  0  0  0  0  0  0
    9.0427   -6.4547    0.0000 N   0  0  0  0  0  0  0  0  0  0  0  0
   11.9006   -6.4547    0.0000 N   0  0  0  0  0  0  0  0  0  0  0  0
   12.6151   -7.6922    0.0000 C   0  0  0  0  0  0  0  0  0  0  0  0
   11.9006   -7.2797    0.0000 C   0  0  0  0  0  0  0  0  0  0  0  0
   11.1861   -7.6922    0.0000 O   0  0  0  0  0  0  0  0  0  0  0  0
   10.4717   -7.2797    0.0000 O   0  0  0  0  0  0  0  0  0  0  0  0
    9.0428   -4.8047    0.0000 C   0  0  0  0  0  0  0  0  0  0  0  0
  1  2  1  0  0  0  0
  6  2  1  0  0  0  0
  3  2  1  0  0  0  0
  3  5  1  0  0  0  0
  5  7  1  0  0  0  0
  7  4  1  0  0  0  0
  4  6  1  0  0  0  0
  4 13  1  1  0  0  0
  5 14  1  1  0  0  0
  6  9  1  6  0  0  0
  7  8  1  1  0  0  0
  9 11  1  0  0  0  0
 11 10  1  0  0  0  0
 11 12  2  0  0  0  0
M  END
> <ID>
CHEBI:61759

> <NAME>
2-acetamido-4-amino-2,4,6-trideoxy-D-galactose

> <DEFINITION>
A trideoxyhexose comprising D-galactopyranose having the hydroxy groups at positions 2- and 4- replaced by acetamido and amino groups respectively and also deoxygenated at the 6-position.

> <STAR>
3

> <SYNONYM>
D-AAT

> <IUPAC_NAME>
2-acetamido-4-amino-2,4,6-trideoxy-D-galactopyranose

> <FORMULA>
C8H16N2O4

> <MASS>
204.22360

> <MONOISOTOPIC_MASS>
204.11101

> <CHARGE>
0

> <SMILES>
C[C@H]1OC(O)[C@H](NC(C)=O)[C@@H](O)[C@H]1N

> <INCHI>
InChI=1S/C8H16N2O4/c1-3-5(9)7(12)6(8(13)14-3)10-4(2)11/h3,5-8,12-13H,9H2,1-2H3,(H,10,11)/t3-,5+,6-,7+,8?/m1/s1

> <INCHIKEY>
ISOLGZVBSWHFJY-XLBMPYLXSA-N

> <PUBMED_CITATION>
29632881; 3624879

$$$$

Marvin  04041110112D          

 46 49  0  0  1  0            999 V2000
    3.8947   -4.9799    0.0000 C   0  0  2  0  0  0  0  0  0  0  0  0
    3.8947   -5.8049    0.0000 C   0  0  1  0  0  0  0  0  0  0  0  0
    3.1801   -4.5674    0.0000 O   0  0  0  0  0  0  0  0  0  0  0  0
    3.1801   -6.2174    0.0000 C   0  0  2  0  0  0  0  0  0  0  0  0
    2.4657   -4.9799    0.0000 C   0  0  1  0  0  0  0  0  0  0  0  0
    2.4657   -5.8049    0.0000 C   0  0  2  0  0  0  0  0  0  0  0  0
    4.6091   -4.5674    0.0000 O   0  0  0  0  0  0  0  0  0  0  0  0
    4.6091   -6.2174    0.0000 O   0  0  0  0  0  0  0  0  0  0  0  0
    3.1801   -7.0424    0.0000 O   0  0  0  0  0  0  0  0  0  0  0  0
    1.7512   -6.2174    0.0000 O   0  0  0  0  0  0  0  0  0  0  0  0
    1.7512   -4.5674    0.0000 C   0  0  0  0  0  0  0  0  0  0  0  0
    1.0367   -4.9799    0.0000 O   0  0  0  0  0  0  0  0  0  0  0  0
    2.4657   -7.4552    0.0000 C   0  0  1  0  0  0  0  0  0  0  0  0
    2.4657   -8.2800    0.0000 C   0  0  1  0  0  0  0  0  0  0  0  0
    1.7510   -7.0427    0.0000 O   0  0  0  0  0  0  0  0  0  0  0  0
    1.7512   -8.6928    0.0000 C   0  0  1  0  0  0  0  0  0  0  0  0
    1.0368   -7.4552    0.0000 C   0  0  2  0  0  0  0  0  0  0  0  0
    1.0368   -8.2803    0.0000 C   0  0  2  0  0  0  0  0  0  0  0  0
    1.7512   -9.5178    0.0000 O   0  0  0  0  0  0  0  0  0  0  0  0
    0.3221   -8.6928    0.0000 O   0  0  0  0  0  0  0  0  0  0  0  0
    0.5108   -7.0427    0.0000 C   0  0  0  0  0  0  0  0  0  0  0  0
    3.1802   -8.6924    0.0000 O   0  0  0  0  0  0  0  0  0  0  0  0
    5.3237   -2.5049    0.0000 C   0  0  1  0  0  0  0  0  0  0  0  0
    5.3237   -3.3299    0.0000 C   0  0  1  0  0  0  0  0  0  0  0  0
    4.6091   -2.0924    0.0000 O   0  0  0  0  0  0  0  0  0  0  0  0
    4.6091   -3.7424    0.0000 C   0  0  2  0  0  0  0  0  0  0  0  0
    3.8947   -2.5049    0.0000 C   0  0  1  0  0  0  0  0  0  0  0  0
    3.8947   -3.3299    0.0000 C   0  0  1  0  0  0  0  0  0  0  0  0
    6.0381   -2.0923    0.0000 O   0  0  0  0  0  0  0  0  0  0  0  0
    6.0381   -3.7424    0.0000 N   0  0  0  0  0  0  0  0  0  0  0  0
    3.1802   -3.7424    0.0000 O   0  0  0  0  0  0  0  0  0  0  0  0
    3.1802   -2.0924    0.0000 C   0  0  0  0  0  0  0  0  0  0  0  0
    2.4657   -2.5049    0.0000 O   0  0  0  0  0  0  0  0  0  0  0  0
    6.0381   -4.5674    0.0000 C   0  0  0  0  0  0  0  0  0  0  0  0
    6.7526   -4.9799    0.0000 O   0  0  0  0  0  0  0  0  0  0  0  0
    5.3237   -4.9799    0.0000 C   0  0  0  0  0  0  0  0  0  0  0  0
    8.1818   -0.8547    0.0000 C   0  0  1  0  0  0  0  0  0  0  0  0
    8.1818   -1.6795    0.0000 C   0  0  1  0  0  0  0  0  0  0  0  0
    7.4671   -0.4422    0.0000 O   0  0  0  0  0  0  0  0  0  0  0  0
    7.4672   -2.0923    0.0000 C   0  0  1  0  0  0  0  0  0  0  0  0
    6.7528   -0.8547    0.0000 C   0  0  2  0  0  0  0  0  0  0  0  0
    6.7528   -1.6798    0.0000 C   0  0  2  0  0  0  0  0  0  0  0  0
    8.8962   -0.4419    0.0000 O   0  0  0  0  0  0  0  0  0  0  0  0
    7.4672   -2.9173    0.0000 O   0  0  0  0  0  0  0  0  0  0  0  0
    6.2268   -0.4422    0.0000 C   0  0  0  0  0  0  0  0  0  0  0  0
    8.8963   -2.0919    0.0000 O   0  0  0  0  0  0  0  0  0  0  0  0
  1  2  1  0  0  0  0
  1  3  1  0  0  0  0
  2  4  1  0  0  0  0
  3  5  1  0  0  0  0
  4  6  1  0  0  0  0
  5  6  1  0  0  0  0
  1  7  1  6  0  0  0
  2  8  1  6  0  0  0
  4  9  1  1  0  0  0
  6 10  1  1  0  0  0
  5 11  1  1  0  0  0
 12 11  1  0  0  0  0
 13 14  1  0  0  0  0
 13 15  1  0  0  0  0
 14 16  1  0  0  0  0
 15 17  1  0  0  0  0
 16 18  1  0  0  0  0
 17 18  1  0  0  0  0
 13  9  1  1  0  0  0
 16 19  1  6  0  0  0
 18 20  1  1  0  0  0
 17 21  1  6  0  0  0
 14 22  1  6  0  0  0
 23 24  1  0  0  0  0
 23 25  1  0  0  0  0
 24 26  1  0  0  0  0
 25 27  1  0  0  0  0
 26 28  1  0  0  0  0
 27 28  1  0  0  0  0
 23 29  1  1  0  0  0
 24 30  1  6  0  0  0
 26  7  1  1  0  0  0
 28 31  1  6  0  0  0
 27 32  1  1  0  0  0
 33 32  1  0  0  0  0
 35 34  2  0  0  0  0
 36 34  1  0  0  0  0
 30 34  1  0  0  0  0
 37 38  1  0  0  0  0
 37 39  1  0  0  0  0
 38 40  1  0  0  0  0
 39 41  1  0  0  0  0
 40 42  1  0  0  0  0
 41 42  1  0  0  0  0
 37 43  1  1  0  0  0
 40 44  1  6  0  0  0
 42 29  1  1  0  0  0
 41 45  1  6  0  0  0
 38 46  1  6  0  0  0
M  END
> <ID>
CHEBI:61764

> <NAME>
alpha-L-Rhap-(1->3)-alpha-D-Galp-(1->3)-beta-D-GlcpNAc-(1->4)-alpha-L-Rhap

> <DEFINITION>
A linear amino tetrasaccharide composed of α-L-rhamnose, α-D-galactose, N-acetyl β-D-glucosamine and α-L-rhamnose units joined by sequential (1→3)-, (1→3)- and (1→4)-linkages.

> <STAR>
3

> <SYNONYM>
alpha-L-rhamnosyl-(1->3)-alpha-D-galactosyl-(1->3)-N-acetyl-beta-D-glucosaminyl-(1->4)-alpha-L-rhamnose; alpha-L-Rha-(1->3)-alpha-D-Gal-(1->3)-beta-D-GlcNAc-(1->4)-alpha-L-Rha; 6-deoxy-alpha-L-mannopyranosyl-(1->3)-alpha-D-galactopyranosyl-(1->3)-2-acetamido-2-deoxy-beta-D-glucopyranosyl-(1->4)-6-deoxy-alpha-L-mannopyranose; (Gal)1 (GlcNAc)1 (LRha)2

> <IUPAC_NAME>
alpha-L-rhamnopyranosyl-(1->3)-alpha-D-galactopyranosyl-(1->3)-2-acetamido-2-deoxy-beta-D-glucopyranosyl-(1->4)-alpha-L-rhamnopyranose

> <FORMULA>
C26H45NO19

> <MASS>
675.63080

> <MONOISOTOPIC_MASS>
675.25858

> <CHARGE>
0

> <SMILES>
C[C@@H]1O[C@@H](O[C@H]2[C@@H](O)[C@@H](CO)O[C@H](O[C@H]3[C@H](O)[C@@H](CO)O[C@@H](O[C@H]4[C@H](C)O[C@@H](O)[C@H](O)[C@@H]4O)[C@@H]3NC(C)=O)[C@@H]2O)[C@H](O)[C@H](O)[C@H]1O

> <INCHI>
InChI=1S/C26H45NO19/c1-6-12(31)15(34)18(37)25(41-6)46-22-14(33)10(5-29)43-26(19(22)38)45-21-11(27-8(3)30)24(42-9(4-28)13(21)32)44-20-7(2)40-23(39)17(36)16(20)35/h6-7,9-26,28-29,31-39H,4-5H2,1-3H3,(H,27,30)/t6-,7-,9+,10+,11+,12-,13+,14-,15+,16-,17+,18+,19+,20-,21+,22-,23+,24-,25-,26+/m0/s1

> <INCHIKEY>
BJNADGRSJHWASS-VGEKICIRSA-N

> <KEGG_GLYCAN_ACCESSION>
G02009

> <PUBMED_CITATION>
1708356

$$$$

Marvin  04041110472D          

 34 36  0  0  1  0            999 V2000
    5.4256   -4.7002    0.0000 C   0  0  1  0  0  0  0  0  0  0  0  0
    4.7112   -4.2877    0.0000 C   0  0  1  0  0  0  0  0  0  0  0  0
    6.1400   -4.2878    0.0000 O   0  0  0  0  0  0  0  0  0  0  0  0
    4.7112   -3.4627    0.0000 C   0  0  2  0  0  0  0  0  0  0  0  0
    6.1400   -3.4628    0.0000 C   0  0  1  0  0  0  0  0  0  0  0  0
    5.4256   -3.0503    0.0000 C   0  0  2  0  0  0  0  0  0  0  0  0
    3.9967   -4.7002    0.0000 O   0  0  0  0  0  0  0  0  0  0  0  0
    3.9968   -3.0501    0.0000 O   0  0  0  0  0  0  0  0  0  0  0  0
    5.4256   -2.2253    0.0000 O   0  0  0  0  0  0  0  0  0  0  0  0
    6.8546   -3.0503    0.0000 C   0  0  0  0  0  0  0  0  0  0  0  0
    6.8546   -2.2254    0.0000 O   0  0  0  0  0  0  0  0  0  0  0  0
    5.4255   -5.5252    0.0000 O   0  0  0  0  0  0  0  0  0  0  0  0
   10.4266   -8.4126    0.0000 C   0  0  1  0  0  0  0  0  0  0  0  0
   10.4266   -9.2376    0.0000 C   0  0  1  0  0  0  0  0  0  0  0  0
    9.7120   -8.0001    0.0000 O   0  0  0  0  0  0  0  0  0  0  0  0
    9.7120   -9.6501    0.0000 C   0  0  2  0  0  0  0  0  0  0  0  0
    8.9976   -8.4126    0.0000 C   0  0  1  0  0  0  0  0  0  0  0  0
    8.9976   -9.2376    0.0000 C   0  0  2  0  0  0  0  0  0  0  0  0
   11.1411   -8.0001    0.0000 O   0  0  0  0  0  0  0  0  0  0  0  0
   11.1411   -9.6501    0.0000 O   0  0  0  0  0  0  0  0  0  0  0  0
    9.7120  -10.4751    0.0000 O   0  0  0  0  0  0  0  0  0  0  0  0
    8.2832   -9.6501    0.0000 O   0  0  0  0  0  0  0  0  0  0  0  0
    8.2832   -8.0001    0.0000 C   0  0  0  0  0  0  0  0  0  0  0  0
    7.5688   -8.4126    0.0000 O   0  0  0  0  0  0  0  0  0  0  0  0
    6.8543   -8.0001    0.0000 C   0  0  1  0  0  0  0  0  0  0  0  0
    6.1399   -8.4126    0.0000 C   0  0  1  0  0  0  0  0  0  0  0  0
    6.8544   -7.1751    0.0000 O   0  0  0  0  0  0  0  0  0  0  0  0
    5.4254   -8.0001    0.0000 C   0  0  2  0  0  0  0  0  0  0  0  0
    6.1399   -6.7627    0.0000 C   0  0  1  0  0  0  0  0  0  0  0  0
    5.4254   -7.1751    0.0000 C   0  0  2  0  0  0  0  0  0  0  0  0
    6.1399   -9.2376    0.0000 O   0  0  0  0  0  0  0  0  0  0  0  0
    4.7109   -8.4125    0.0000 O   0  0  0  0  0  0  0  0  0  0  0  0
    4.7110   -6.7627    0.0000 O   0  0  0  0  0  0  0  0  0  0  0  0
    6.1399   -5.9377    0.0000 C   0  0  0  0  0  0  0  0  0  0  0  0
  1  2  1  0  0  0  0
  1  3  1  0  0  0  0
  2  4  1  0  0  0  0
  3  5  1  0  0  0  0
  4  6  1  0  0  0  0
  5  6  1  0  0  0  0
  2  7  1  6  0  0  0
  4  8  1  1  0  0  0
  6  9  1  1  0  0  0
  5 10  1  1  0  0  0
 11 10  1  0  0  0  0
  1 12  1  1  0  0  0
 13 14  1  0  0  0  0
 13 15  1  0  0  0  0
 14 16  1  0  0  0  0
 15 17  1  0  0  0  0
 16 18  1  0  0  0  0
 17 18  1  0  0  0  0
 13 19  1  1  0  0  0
 14 20  1  6  0  0  0
 16 21  1  1  0  0  0
 18 22  1  1  0  0  0
 17 23  1  1  0  0  0
 24 23  1  0  0  0  0
 25 26  1  0  0  0  0
 25 27  1  0  0  0  0
 26 28  1  0  0  0  0
 27 29  1  0  0  0  0
 28 30  1  0  0  0  0
 29 30  1  0  0  0  0
 25 24  1  1  0  0  0
 26 31  1  6  0  0  0
 28 32  1  1  0  0  0
 30 33  1  1  0  0  0
 29 34  1  1  0  0  0
 12 34  1  0  0  0  0
M  END
> <ID>
CHEBI:61765

> <NAME>
beta-(1->6)-galactotriose

> <DEFINITION>
A galactotriose composed of three β-D-galactose units joined by (1→6)-linkages.

> <STAR>
3

> <SYNONYM>
beta-D-Galp-(1->6)-beta-D-Galp-(1->6)-beta-D-Galp; beta-D-galactosyl-(1->6)-beta-D-galactosyl-(1->6)-beta-D-galactose; beta-D-Gal-(1->6)-beta-D-Gal-(1->6)-beta-D-Gal; (Gal)3

> <IUPAC_NAME>
beta-D-galactopyranosyl-(1->6)-beta-D-galactopyranosyl-(1->6)-beta-D-galactopyranose

> <FORMULA>
C18H32O16

> <MASS>
504.43710

> <MONOISOTOPIC_MASS>
504.16903

> <CHARGE>
0

> <SMILES>
OC[C@H]1O[C@@H](OC[C@H]2O[C@@H](OC[C@H]3O[C@@H](O)[C@H](O)[C@@H](O)[C@H]3O)[C@H](O)[C@@H](O)[C@H]2O)[C@H](O)[C@@H](O)[C@H]1O

> <INCHI>
InChI=1S/C18H32O16/c19-1-4-7(20)11(24)14(27)17(33-4)31-3-6-9(22)12(25)15(28)18(34-6)30-2-5-8(21)10(23)13(26)16(29)32-5/h4-29H,1-3H2/t4-,5-,6-,7+,8+,9+,10+,11+,12+,13-,14-,15-,16-,17-,18-/m1/s1

> <INCHIKEY>
FBJQEBRMDXPWNX-GDNUZVBLSA-N

> <REAXYS_REGISTRY_NUMBER>
1358960

> <KEGG_GLYCAN_ACCESSION>
G00442

> <PUBMED_CITATION>
12433484; 7763824

$$$$

Marvin  04041112092D          

 45 47  0  0  1  0            999 V2000
    2.1753   -5.6047    0.0000 C   0  0  1  0  0  0  0  0  0  0  0  0
    1.4609   -5.1922    0.0000 C   0  0  1  0  0  0  0  0  0  0  0  0
    2.8898   -5.1923    0.0000 O   0  0  0  0  0  0  0  0  0  0  0  0
    1.4609   -4.3672    0.0000 C   0  0  2  0  0  0  0  0  0  0  0  0
    2.8898   -4.3673    0.0000 C   0  0  1  0  0  0  0  0  0  0  0  0
    2.1753   -3.9548    0.0000 C   0  0  2  0  0  0  0  0  0  0  0  0
    0.7463   -5.6047    0.0000 O   0  0  0  0  0  0  0  0  0  0  0  0
    0.7465   -3.9546    0.0000 O   0  0  0  0  0  0  0  0  0  0  0  0
    2.1754   -3.1298    0.0000 O   0  0  0  0  0  0  0  0  0  0  0  0
    3.6043   -3.9548    0.0000 C   0  0  0  0  0  0  0  0  0  0  0  0
    3.6043   -3.1299    0.0000 O   0  0  0  0  0  0  0  0  0  0  0  0
    2.1751   -6.4297    0.0000 O   0  0  0  0  0  0  0  0  0  0  0  0
    7.1763   -9.3171    0.0000 C   0  0  1  0  0  0  0  0  0  0  0  0
    7.1763  -10.1421    0.0000 C   0  0  1  0  0  0  0  0  0  0  0  0
    6.4618   -8.9046    0.0000 O   0  0  0  0  0  0  0  0  0  0  0  0
    6.4618  -10.5546    0.0000 C   0  0  2  0  0  0  0  0  0  0  0  0
    5.7474   -9.3171    0.0000 C   0  0  1  0  0  0  0  0  0  0  0  0
    5.7474  -10.1421    0.0000 C   0  0  2  0  0  0  0  0  0  0  0  0
    7.8908   -8.9046    0.0000 O   0  0  0  0  0  0  0  0  0  0  0  0
    7.8908  -10.5546    0.0000 O   0  0  0  0  0  0  0  0  0  0  0  0
    6.4618  -11.3796    0.0000 O   0  0  0  0  0  0  0  0  0  0  0  0
    5.0330  -10.5546    0.0000 O   0  0  0  0  0  0  0  0  0  0  0  0
    5.0330   -8.9046    0.0000 C   0  0  0  0  0  0  0  0  0  0  0  0
    4.3185   -9.3171    0.0000 O   0  0  0  0  0  0  0  0  0  0  0  0
    3.6039   -8.9046    0.0000 C   0  0  1  0  0  0  0  0  0  0  0  0
    2.8895   -9.3171    0.0000 C   0  0  1  0  0  0  0  0  0  0  0  0
    3.6041   -8.0796    0.0000 O   0  0  0  0  0  0  0  0  0  0  0  0
    2.1751   -8.9046    0.0000 C   0  0  2  0  0  0  0  0  0  0  0  0
    2.8895   -7.6672    0.0000 C   0  0  1  0  0  0  0  0  0  0  0  0
    2.1751   -8.0796    0.0000 C   0  0  2  0  0  0  0  0  0  0  0  0
    2.8895  -10.1421    0.0000 O   0  0  0  0  0  0  0  0  0  0  0  0
    1.4606   -9.3170    0.0000 O   0  0  0  0  0  0  0  0  0  0  0  0
    1.4607   -7.6672    0.0000 O   0  0  0  0  0  0  0  0  0  0  0  0
    2.8895   -6.8422    0.0000 C   0  0  0  0  0  0  0  0  0  0  0  0
   11.4633   -9.3169    0.0000 C   0  0  2  0  0  0  0  0  0  0  0  0
   10.7488   -8.9046    0.0000 C   0  0  2  0  0  0  0  0  0  0  0  0
   10.0342   -9.3170    0.0000 C   0  0  2  0  0  0  0  0  0  0  0  0
    9.3199   -8.9045    0.0000 C   0  0  1  0  0  0  0  0  0  0  0  0
    8.6052   -9.3171    0.0000 C   0  0  0  0  0  0  0  0  0  0  0  0
   12.1779   -8.9045    0.0000 C   0  0  0  0  0  0  0  0  0  0  0  0
   10.7488   -8.0795    0.0000 O   0  0  0  0  0  0  0  0  0  0  0  0
   10.0342  -10.1420    0.0000 O   0  0  0  0  0  0  0  0  0  0  0  0
    9.3199   -8.0795    0.0000 O   0  0  0  0  0  0  0  0  0  0  0  0
   12.8923   -9.3170    0.0000 O   0  0  0  0  0  0  0  0  0  0  0  0
   11.4633  -10.1420    0.0000 O   0  0  0  0  0  0  0  0  0  0  0  0
  1  2  1  0  0  0  0
  1  3  1  0  0  0  0
  2  4  1  0  0  0  0
  3  5  1  0  0  0  0
  4  6  1  0  0  0  0
  5  6  1  0  0  0  0
  2  7  1  6  0  0  0
  4  8  1  1  0  0  0
  6  9  1  1  0  0  0
  5 10  1  1  0  0  0
 11 10  1  0  0  0  0
  1 12  1  1  0  0  0
 13 14  1  0  0  0  0
 13 15  1  0  0  0  0
 14 16  1  0  0  0  0
 15 17  1  0  0  0  0
 16 18  1  0  0  0  0
 17 18  1  0  0  0  0
 13 19  1  1  0  0  0
 14 20  1  6  0  0  0
 16 21  1  1  0  0  0
 18 22  1  1  0  0  0
 17 23  1  1  0  0  0
 24 23  1  0  0  0  0
 25 26  1  0  0  0  0
 25 27  1  0  0  0  0
 26 28  1  0  0  0  0
 27 29  1  0  0  0  0
 28 30  1  0  0  0  0
 29 30  1  0  0  0  0
 25 24  1  1  0  0  0
 26 31  1  6  0  0  0
 28 32  1  1  0  0  0
 30 33  1  1  0  0  0
 29 34  1  1  0  0  0
 12 34  1  0  0  0  0
 36 35  1  0  0  0  0
 37 36  1  0  0  0  0
 38 37  1  0  0  0  0
 39 38  1  0  0  0  0
 40 35  1  0  0  0  0
 36 41  1  6  0  0  0
 37 42  1  1  0  0  0
 38 43  1  1  0  0  0
 19 39  1  0  0  0  0
 44 40  1  0  0  0  0
 35 45  1  6  0  0  0
M  END
> <ID>
CHEBI:61768

> <NAME>
beta-(1->6)-galactotetraitol

> <DEFINITION>
A glycoside composed of three β-D-galactosyl residues and one galactitol unit all joined via (1→6)-linkages.

> <STAR>
3

> <SYNONYM>
beta-D-Galp-(1->6)-beta-D-Galp-(1->6)-beta-D-Galp-(1->6)-D-galactitol; beta-D-galactosyl-(1->6)-beta-D-galactosyl-(1->6)-beta-D-galactosyl-(1->6)-D-galactitol; beta-D-Gal-(1->6)-beta-D-Gal-(1->6)-beta-D-Gal-(1->6)-D-galactitol

> <IUPAC_NAME>
beta-D-galactopyranosyl-(1->6)-beta-D-galactopyranosyl-(1->6)-beta-D-galactopyranosyl-(1->6)-D-galactitol

> <FORMULA>
C24H44O21

> <MASS>
668.59360

> <MONOISOTOPIC_MASS>
668.23751

> <CHARGE>
0

> <SMILES>
OC[C@H](O)[C@@H](O)[C@@H](O)[C@H](O)CO[C@@H]1O[C@H](CO[C@@H]2O[C@H](CO[C@@H]3O[C@H](CO)[C@H](O)[C@H](O)[C@H]3O)[C@H](O)[C@H](O)[C@H]2O)[C@H](O)[C@H](O)[C@H]1O

> <INCHI>
InChI=1S/C24H44O21/c25-1-6(27)11(29)12(30)7(28)3-40-22-20(38)17(35)14(32)9(44-22)5-42-24-21(39)18(36)15(33)10(45-24)4-41-23-19(37)16(34)13(31)8(2-26)43-23/h6-39H,1-5H2/t6-,7+,8+,9+,10+,11+,12-,13-,14-,15-,16-,17-,18-,19+,20+,21+,22+,23+,24+/m0/s1

> <INCHIKEY>
ZXPLRDFHBYIQOX-ZJWIQJJASA-N

> <PUBMED_CITATION>
7763824

$$$$

Ketcher 02102017282D 1   1.00000     0.00000     0

 34 35  0     1  0            999 V2000
   18.2234  -15.5161    0.0000 C   0  0  0  0  0  0  0  0  0  0  0  0
   17.3572  -15.0163    0.0000 C   0  0  0  0  0  0  0  0  0  0  0  0
   16.4911  -15.5163    0.0000 C   0  0  0  0  0  0  0  0  0  0  0  0
   15.6252  -15.0163    0.0000 C   0  0  0  0  0  0  0  0  0  0  0  0
   14.7591  -15.5163    0.0000 C   0  0  0  0  0  0  0  0  0  0  0  0
   19.0894  -15.0163    0.0000 C   0  0  0  0  0  0  0  0  0  0  0  0
   17.3572  -14.0163    0.0000 O   0  0  0  0  0  0  0  0  0  0  0  0
   16.4911  -16.5163    0.0000 O   0  0  0  0  0  0  0  0  0  0  0  0
   15.6252  -14.0163    0.0000 O   0  0  0  0  0  0  0  0  0  0  0  0
   18.2234  -16.5163    0.0000 O   0  0  0  0  0  0  0  0  0  0  0  0
   14.7586  -16.5175    0.0000 O   0  0  0  0  0  0  0  0  0  0  0  0
    8.6969  -12.0180    0.0000 O   0  0  0  0  0  0  0  0  0  0  0  0
   11.2947  -15.5176    0.0000 O   0  0  0  0  0  0  0  0  0  0  0  0
   10.4287  -15.0176    0.0000 C   0  0  0  0  0  0  0  0  0  0  0  0
    9.5628  -15.5176    0.0000 C   0  0  0  0  0  0  0  0  0  0  0  0
   10.4288  -14.0176    0.0000 O   0  0  0  0  0  0  0  0  0  0  0  0
    8.6967  -15.0176    0.0000 C   0  0  0  0  0  0  0  0  0  0  0  0
    9.5628  -13.5179    0.0000 C   0  0  0  0  0  0  0  0  0  0  0  0
    8.6967  -14.0176    0.0000 C   0  0  0  0  0  0  0  0  0  0  0  0
    9.5628  -16.5175    0.0000 O   0  0  0  0  0  0  0  0  0  0  0  0
    7.8307  -15.5176    0.0000 O   0  0  0  0  0  0  0  0  0  0  0  0
    7.8308  -13.5179    0.0000 O   0  0  0  0  0  0  0  0  0  0  0  0
    9.5628  -12.5180    0.0000 C   0  0  0  0  0  0  0  0  0  0  0  0
   13.8926  -17.0175    0.0000 C   0  0  0  0  0  0  0  0  0  0  0  0
   13.8926  -18.0175    0.0000 C   0  0  0  0  0  0  0  0  0  0  0  0
   13.0265  -16.5175    0.0000 O   0  0  0  0  0  0  0  0  0  0  0  0
   13.0265  -18.5176    0.0000 C   0  0  0  0  0  0  0  0  0  0  0  0
   12.1606  -17.0175    0.0000 C   0  0  0  0  0  0  0  0  0  0  0  0
   12.1606  -18.0175    0.0000 C   0  0  0  0  0  0  0  0  0  0  0  0
   14.7586  -18.5176    0.0000 O   0  0  0  0  0  0  0  0  0  0  0  0
   13.0265  -19.5176    0.0000 O   0  0  0  0  0  0  0  0  0  0  0  0
   11.2947  -18.5176    0.0000 O   0  0  0  0  0  0  0  0  0  0  0  0
   11.2947  -16.5175    0.0000 C   0  0  0  0  0  0  0  0  0  0  0  0
   19.0895  -14.0163    0.0000 O   0  0  0  0  0  0  0  0  0  0  0  0
  2  1  1  0     0  0
  3  2  1  0     0  0
  4  3  1  0     0  0
  5  4  1  0     0  0
  6  1  1  0     0  0
  2  7  1  6     0  0
  3  8  1  1     0  0
  4  9  1  1     0  0
  1 10  1  6     0  0
  5 11  1  0     0  0
 14 15  1  0     0  0
 14 16  1  0     0  0
 15 17  1  0     0  0
 16 18  1  0     0  0
 17 19  1  0     0  0
 18 19  1  0     0  0
 14 13  1  1     0  0
 15 20  1  6     0  0
 17 21  1  1     0  0
 19 22  1  1     0  0
 18 23  1  1     0  0
 12 23  1  0     0  0
 24 25  1  0     0  0
 24 26  1  0     0  0
 25 27  1  0     0  0
 26 28  1  0     0  0
 27 29  1  0     0  0
 28 29  1  0     0  0
 24 11  1  1     0  0
 25 30  1  6     0  0
 27 31  1  1     0  0
 29 32  1  1     0  0
 28 33  1  1     0  0
 33 13  1  0     0  0
  6 34  1  0     0  0
M  END
> <ID>
CHEBI:61769

> <NAME>
beta-(1->6)-galactotriitol

> <DEFINITION>
A glycoside composed of two β-D-galactosyl residues and one galactitol unit all joined via (1→6)-linkages.

> <STAR>
3

> <SYNONYM>
beta-D-Galp-(1->6)-beta-D-Galp-(1->6)-D-galactitol; beta-D-galactosyl-(1->6)-beta-D-galactosyl-(1->6)-D-galactitol; beta-D-Gal-(1->6)-beta-D-Gal-(1->6)-D-galactitol

> <IUPAC_NAME>
beta-D-galactopyranosyl-(1->6)-beta-D-galactopyranosyl-(1->6)-D-galactitol

> <FORMULA>
C18H34O16

> <MASS>
506.454

> <MONOISOTOPIC_MASS>
506.18469

> <CHARGE>
0

> <SMILES>
[C@@H]([C@H]([C@H]([C@@H](CO[C@H]1[C@@H]([C@H]([C@H]([C@H](O1)CO[C@H]2[C@@H]([C@H]([C@H]([C@H](O2)CO)O)O)O)O)O)O)O)O)O)(CO)O

> <INCHI>
InChI=1S/C18H34O16/c19-1-5(21)9(23)10(24)6(22)3-31-17-16(30)14(28)12(26)8(34-17)4-32-18-15(29)13(27)11(25)7(2-20)33-18/h5-30H,1-4H2/t5-,6+,7+,8+,9+,10-,11-,12-,13-,14-,15+,16+,17+,18+/m0/s1

> <INCHIKEY>
KMNMNIBWPCHYPW-DQCIVCCDSA-N

> <PUBMED_CITATION>
7763824

$$$$

Marvin  04041113392D          

 23 24  0  0  1  0            999 V2000
    2.1752   -6.4298    0.0000 O   0  0  0  0  0  0  0  0  0  0  0  0
    7.1763   -9.3172    0.0000 C   0  0  1  0  0  0  0  0  0  0  0  0
    7.1763  -10.1422    0.0000 C   0  0  1  0  0  0  0  0  0  0  0  0
    6.4619   -8.9047    0.0000 O   0  0  0  0  0  0  0  0  0  0  0  0
    6.4619  -10.5547    0.0000 C   0  0  2  0  0  0  0  0  0  0  0  0
    5.7474   -9.3172    0.0000 C   0  0  1  0  0  0  0  0  0  0  0  0
    5.7474  -10.1422    0.0000 C   0  0  2  0  0  0  0  0  0  0  0  0
    7.8909   -8.9047    0.0000 O   0  0  0  0  0  0  0  0  0  0  0  0
    7.8909  -10.5547    0.0000 O   0  0  0  0  0  0  0  0  0  0  0  0
    6.4619  -11.3797    0.0000 O   0  0  0  0  0  0  0  0  0  0  0  0
    5.0330  -10.5547    0.0000 O   0  0  0  0  0  0  0  0  0  0  0  0
    5.0330   -8.9047    0.0000 C   0  0  0  0  0  0  0  0  0  0  0  0
    4.3185   -9.3172    0.0000 O   0  0  0  0  0  0  0  0  0  0  0  0
    3.6040   -8.9047    0.0000 C   0  0  1  0  0  0  0  0  0  0  0  0
    2.8896   -9.3172    0.0000 C   0  0  1  0  0  0  0  0  0  0  0  0
    3.6041   -8.0797    0.0000 O   0  0  0  0  0  0  0  0  0  0  0  0
    2.1751   -8.9047    0.0000 C   0  0  2  0  0  0  0  0  0  0  0  0
    2.8896   -7.6673    0.0000 C   0  0  1  0  0  0  0  0  0  0  0  0
    2.1751   -8.0797    0.0000 C   0  0  2  0  0  0  0  0  0  0  0  0
    2.8896  -10.1422    0.0000 O   0  0  0  0  0  0  0  0  0  0  0  0
    1.4606   -9.3171    0.0000 O   0  0  0  0  0  0  0  0  0  0  0  0
    1.4607   -7.6673    0.0000 O   0  0  0  0  0  0  0  0  0  0  0  0
    2.8896   -6.8423    0.0000 C   0  0  0  0  0  0  0  0  0  0  0  0
  2  3  1  0  0  0  0
  2  4  1  0  0  0  0
  3  5  1  0  0  0  0
  4  6  1  0  0  0  0
  5  7  1  0  0  0  0
  6  7  1  0  0  0  0
  2  8  1  1  0  0  0
  3  9  1  6  0  0  0
  5 10  1  1  0  0  0
  7 11  1  1  0  0  0
  6 12  1  1  0  0  0
 13 12  1  0  0  0  0
 14 15  1  0  0  0  0
 14 16  1  0  0  0  0
 15 17  1  0  0  0  0
 16 18  1  0  0  0  0
 17 19  1  0  0  0  0
 18 19  1  0  0  0  0
 14 13  1  1  0  0  0
 15 20  1  6  0  0  0
 17 21  1  1  0  0  0
 19 22  1  1  0  0  0
 18 23  1  1  0  0  0
  1 23  1  0  0  0  0
M  END
> <ID>
CHEBI:61770

> <NAME>
beta-(1->6)-galactobiose

> <DEFINITION>
A glycosylgalactose comprising two β-D-galactose units joined via a (1→6)-linkage.

> <STAR>
3

> <SYNONYM>
Galbeta1-6Galbeta; Galb1-6Galb; beta-D-Galp-(1->6)-beta-D-Galp; beta-D-galactosyl-(1->6)-beta-D-galactose; beta-D-Gal-(1->6)-beta-D-Gal; 6-O-beta-D-galactopyranosyl-beta-D-galactopyranose

> <IUPAC_NAME>
beta-D-galactopyranosyl-(1->6)-beta-D-galactopyranose

> <FORMULA>
C12H22O11

> <MASS>
342.29650

> <MONOISOTOPIC_MASS>
342.11621

> <CHARGE>
0

> <SMILES>
OC[C@H]1O[C@@H](OC[C@H]2O[C@@H](O)[C@H](O)[C@@H](O)[C@H]2O)[C@H](O)[C@@H](O)[C@H]1O

> <INCHI>
InChI=1S/C12H22O11/c13-1-3-5(14)8(17)10(19)12(23-3)21-2-4-6(15)7(16)9(18)11(20)22-4/h3-20H,1-2H2/t3-,4-,5+,6+,7+,8+,9-,10-,11-,12-/m1/s1

> <INCHIKEY>
DLRVVLDZNNYCBX-WSWWMNSNSA-N

> <REAXYS_REGISTRY_NUMBER>
90859

> <PUBMED_CITATION>
25568069; 7763824

$$$$

Marvin  04041113532D          

 34 36  0  0  1  0            999 V2000
    7.1763   -9.3172    0.0000 C   0  0  1  0  0  0  0  0  0  0  0  0
    7.1763  -10.1422    0.0000 C   0  0  1  0  0  0  0  0  0  0  0  0
    6.4619   -8.9047    0.0000 O   0  0  0  0  0  0  0  0  0  0  0  0
    6.4619  -10.5547    0.0000 C   0  0  2  0  0  0  0  0  0  0  0  0
    5.7474   -9.3172    0.0000 C   0  0  1  0  0  0  0  0  0  0  0  0
    5.7474  -10.1422    0.0000 C   0  0  2  0  0  0  0  0  0  0  0  0
    7.8909   -8.9047    0.0000 O   0  0  0  0  0  0  0  0  0  0  0  0
    7.8909  -10.5547    0.0000 O   0  0  0  0  0  0  0  0  0  0  0  0
    6.4619  -11.3797    0.0000 O   0  0  0  0  0  0  0  0  0  0  0  0
    5.0330  -10.5547    0.0000 O   0  0  0  0  0  0  0  0  0  0  0  0
    5.0330   -8.9047    0.0000 C   0  0  0  0  0  0  0  0  0  0  0  0
    4.3185   -9.3172    0.0000 O   0  0  0  0  0  0  0  0  0  0  0  0
    8.6053   -6.8422    0.0000 C   0  0  1  0  0  0  0  0  0  0  0  0
    8.6053   -7.6672    0.0000 C   0  0  1  0  0  0  0  0  0  0  0  0
    7.8909   -6.4297    0.0000 O   0  0  0  0  0  0  0  0  0  0  0  0
    7.8909   -8.0797    0.0000 C   0  0  2  0  0  0  0  0  0  0  0  0
    7.1764   -6.8422    0.0000 C   0  0  1  0  0  0  0  0  0  0  0  0
    7.1764   -7.6672    0.0000 C   0  0  2  0  0  0  0  0  0  0  0  0
    9.3199   -6.4297    0.0000 O   0  0  0  0  0  0  0  0  0  0  0  0
    9.3199   -8.0797    0.0000 O   0  0  0  0  0  0  0  0  0  0  0  0
    6.4620   -8.0797    0.0000 O   0  0  0  0  0  0  0  0  0  0  0  0
    6.4620   -6.4297    0.0000 C   0  0  0  0  0  0  0  0  0  0  0  0
    5.7475   -6.8422    0.0000 O   0  0  0  0  0  0  0  0  0  0  0  0
   10.0344   -4.3671    0.0000 C   0  0  1  0  0  0  0  0  0  0  0  0
   10.0344   -5.1921    0.0000 C   0  0  1  0  0  0  0  0  0  0  0  0
    9.3199   -3.9546    0.0000 O   0  0  0  0  0  0  0  0  0  0  0  0
    9.3199   -5.6047    0.0000 C   0  0  2  0  0  0  0  0  0  0  0  0
    8.6054   -4.3671    0.0000 C   0  0  1  0  0  0  0  0  0  0  0  0
    8.6054   -5.1921    0.0000 C   0  0  2  0  0  0  0  0  0  0  0  0
   10.7489   -3.9546    0.0000 O   0  0  0  0  0  0  0  0  0  0  0  0
   10.7489   -5.6047    0.0000 O   0  0  0  0  0  0  0  0  0  0  0  0
    7.8910   -5.6047    0.0000 O   0  0  0  0  0  0  0  0  0  0  0  0
    7.8910   -3.9546    0.0000 C   0  0  0  0  0  0  0  0  0  0  0  0
    7.1765   -4.3671    0.0000 O   0  0  0  0  0  0  0  0  0  0  0  0
  1  2  1  0  0  0  0
  1  3  1  0  0  0  0
  2  4  1  0  0  0  0
  3  5  1  0  0  0  0
  4  6  1  0  0  0  0
  5  6  1  0  0  0  0
  1  7  1  1  0  0  0
  2  8  1  6  0  0  0
  4  9  1  1  0  0  0
  6 10  1  1  0  0  0
  5 11  1  1  0  0  0
 12 11  1  0  0  0  0
 13 14  1  0  0  0  0
 13 15  1  0  0  0  0
 14 16  1  0  0  0  0
 15 17  1  0  0  0  0
 16 18  1  0  0  0  0
 17 18  1  0  0  0  0
 13 19  1  1  0  0  0
 14 20  1  6  0  0  0
 16  7  1  1  0  0  0
 18 21  1  1  0  0  0
 17 22  1  1  0  0  0
 23 22  1  0  0  0  0
 24 25  1  0  0  0  0
 24 26  1  0  0  0  0
 25 27  1  0  0  0  0
 26 28  1  0  0  0  0
 27 29  1  0  0  0  0
 28 29  1  0  0  0  0
 24 30  1  1  0  0  0
 25 31  1  6  0  0  0
 27 19  1  1  0  0  0
 29 32  1  1  0  0  0
 28 33  1  1  0  0  0
 34 33  1  0  0  0  0
M  END
> <ID>
CHEBI:61771

> <NAME>
beta-(1->3)-galactotriose

> <DEFINITION>
A galactotriose composed of three β-D-galactopyranose units joined by (1→3)-linkages.

> <STAR>
3

> <SYNONYM>
beta-D-Galp-(1->3)-beta-D-Galp-(1->3)-beta-D-Galp; beta-D-galactosyl-(1->3)-beta-D-galactosyl-(1->3)-beta-D-galactose; beta-D-Gal-(1->3)-beta-D-Gal-(1->3)-beta-D-Gal; (Gal)3

> <IUPAC_NAME>
beta-D-galactopyranosyl-(1->3)-beta-D-galactopyranosyl-(1->3)-beta-D-galactopyranose

> <FORMULA>
C18H32O16

> <MASS>
504.43710

> <MONOISOTOPIC_MASS>
504.16903

> <CHARGE>
0

> <SMILES>
OC[C@H]1O[C@@H](O[C@H]2[C@@H](O)[C@@H](CO)O[C@@H](O[C@@H]3[C@@H](O)[C@H](O)O[C@H](CO)[C@@H]3O)[C@@H]2O)[C@H](O)[C@@H](O)[C@H]1O

> <INCHI>
InChI=1S/C18H32O16/c19-1-4-7(22)10(25)11(26)17(31-4)34-15-9(24)6(3-21)32-18(13(15)28)33-14-8(23)5(2-20)30-16(29)12(14)27/h4-29H,1-3H2/t4-,5-,6-,7+,8+,9+,10+,11-,12-,13-,14+,15+,16-,17+,18+/m1/s1

> <INCHIKEY>
DBTMGCOVALSLOR-BNXXFJMQSA-N

> <KEGG_GLYCAN_ACCESSION>
G00830

> <PUBMED_CITATION>
7763824

$$$$

Marvin  04041114062D          

 23 24  0  0  1  0            999 V2000
    7.1763   -9.3172    0.0000 C   0  0  1  0  0  0  0  0  0  0  0  0
    7.1763  -10.1422    0.0000 C   0  0  1  0  0  0  0  0  0  0  0  0
    6.4619   -8.9047    0.0000 O   0  0  0  0  0  0  0  0  0  0  0  0
    6.4619  -10.5547    0.0000 C   0  0  2  0  0  0  0  0  0  0  0  0
    5.7474   -9.3172    0.0000 C   0  0  1  0  0  0  0  0  0  0  0  0
    5.7474  -10.1422    0.0000 C   0  0  2  0  0  0  0  0  0  0  0  0
    7.8909   -8.9047    0.0000 O   0  0  0  0  0  0  0  0  0  0  0  0
    7.8909  -10.5547    0.0000 O   0  0  0  0  0  0  0  0  0  0  0  0
    6.4619  -11.3797    0.0000 O   0  0  0  0  0  0  0  0  0  0  0  0
    5.0330  -10.5547    0.0000 O   0  0  0  0  0  0  0  0  0  0  0  0
    5.0330   -8.9047    0.0000 C   0  0  0  0  0  0  0  0  0  0  0  0
    4.3185   -9.3172    0.0000 O   0  0  0  0  0  0  0  0  0  0  0  0
    8.6053   -6.8422    0.0000 C   0  0  1  0  0  0  0  0  0  0  0  0
    8.6053   -7.6672    0.0000 C   0  0  1  0  0  0  0  0  0  0  0  0
    7.8909   -6.4297    0.0000 O   0  0  0  0  0  0  0  0  0  0  0  0
    7.8909   -8.0797    0.0000 C   0  0  2  0  0  0  0  0  0  0  0  0
    7.1764   -6.8422    0.0000 C   0  0  1  0  0  0  0  0  0  0  0  0
    7.1764   -7.6672    0.0000 C   0  0  2  0  0  0  0  0  0  0  0  0
    9.3199   -6.4297    0.0000 O   0  0  0  0  0  0  0  0  0  0  0  0
    9.3199   -8.0797    0.0000 O   0  0  0  0  0  0  0  0  0  0  0  0
    6.4620   -8.0797    0.0000 O   0  0  0  0  0  0  0  0  0  0  0  0
    6.4620   -6.4297    0.0000 C   0  0  0  0  0  0  0  0  0  0  0  0
    5.7475   -6.8422    0.0000 O   0  0  0  0  0  0  0  0  0  0  0  0
  1  2  1  0  0  0  0
  1  3  1  0  0  0  0
  2  4  1  0  0  0  0
  3  5  1  0  0  0  0
  4  6  1  0  0  0  0
  5  6  1  0  0  0  0
  1  7  1  1  0  0  0
  2  8  1  6  0  0  0
  4  9  1  1  0  0  0
  6 10  1  1  0  0  0
  5 11  1  1  0  0  0
 12 11  1  0  0  0  0
 13 14  1  0  0  0  0
 13 15  1  0  0  0  0
 14 16  1  0  0  0  0
 15 17  1  0  0  0  0
 16 18  1  0  0  0  0
 17 18  1  0  0  0  0
 13 19  1  1  0  0  0
 14 20  1  6  0  0  0
 16  7  1  1  0  0  0
 18 21  1  1  0  0  0
 17 22  1  1  0  0  0
 23 22  1  0  0  0  0
M  END
> <ID>
CHEBI:61772

> <NAME>
beta-(1->3)-galactobiose

> <DEFINITION>
A glycosylgalactose comprising two β-D-galactose units joined via a (1→3)-linkage.

> <STAR>
3

> <SYNONYM>
Galbeta1-3Galbeta; Galb1-3Galb; beta-D-Galp-(1->3)-beta-D-Galp; beta-D-galactosyl-(1->3)-beta-D-galactose; beta-D-Gal-(1->3)-beta-D-Gal; 3-O-beta-D-galactopyranosyl-beta-D-galactopyranose

> <IUPAC_NAME>
beta-D-galactopyranosyl-(1->3)-beta-D-galactopyranose

> <FORMULA>
C12H22O11

> <MASS>
342.29650

> <MONOISOTOPIC_MASS>
342.11621

> <CHARGE>
0

> <SMILES>
OC[C@H]1O[C@@H](O[C@@H]2[C@@H](O)[C@H](O)O[C@H](CO)[C@@H]2O)[C@H](O)[C@@H](O)[C@H]1O

> <INCHI>
InChI=1S/C12H22O11/c13-1-3-5(15)7(17)8(18)12(22-3)23-10-6(16)4(2-14)21-11(20)9(10)19/h3-20H,1-2H2/t3-,4-,5+,6+,7+,8-,9-,10+,11-,12+/m1/s1

> <INCHIKEY>
QIGJYVCQYDKYDW-BAYKCOMVSA-N

> <REAXYS_REGISTRY_NUMBER>
4323770

> <PUBMED_CITATION>
19443021; 25568069; 31537530; 7763824

$$$$

Marvin  04041115142D          

 32 34  0  0  1  0            999 V2000
   11.9188   -4.4322    0.0000 O   0  0  0  0  0  0  0  0  0  0  0  0
   16.9199   -7.3196    0.0000 C   0  0  0  0  0  0  0  0  0  0  0  0
   16.9199   -8.1446    0.0000 C   0  0  1  0  0  0  0  0  0  0  0  0
   16.2055   -6.9071    0.0000 O   0  0  0  0  0  0  0  0  0  0  0  0
   16.2055   -8.5571    0.0000 C   0  0  2  0  0  0  0  0  0  0  0  0
   15.4910   -7.3196    0.0000 C   0  0  1  0  0  0  0  0  0  0  0  0
   15.4910   -8.1446    0.0000 C   0  0  2  0  0  0  0  0  0  0  0  0
   17.6345   -6.9071    0.0000 O   0  0  0  0  0  0  0  0  0  0  0  0
   17.6345   -8.5571    0.0000 O   0  0  0  0  0  0  0  0  0  0  0  0
   16.2055   -9.3821    0.0000 O   0  0  0  0  0  0  0  0  0  0  0  0
   14.7766   -8.5571    0.0000 O   0  0  0  0  0  0  0  0  0  0  0  0
   14.7766   -6.9071    0.0000 C   0  0  0  0  0  0  0  0  0  0  0  0
   14.0621   -7.3196    0.0000 O   0  0  0  0  0  0  0  0  0  0  0  0
   13.3476   -6.9071    0.0000 C   0  0  1  0  0  0  0  0  0  0  0  0
   12.6332   -7.3196    0.0000 C   0  0  1  0  0  0  0  0  0  0  0  0
   13.3477   -6.0821    0.0000 O   0  0  0  0  0  0  0  0  0  0  0  0
   11.9187   -6.9071    0.0000 C   0  0  2  0  0  0  0  0  0  0  0  0
   12.6332   -5.6697    0.0000 C   0  0  1  0  0  0  0  0  0  0  0  0
   11.9187   -6.0821    0.0000 C   0  0  2  0  0  0  0  0  0  0  0  0
   12.6332   -8.1446    0.0000 O   0  0  0  0  0  0  0  0  0  0  0  0
   11.2042   -7.3195    0.0000 O   0  0  0  0  0  0  0  0  0  0  0  0
   11.2043   -5.6697    0.0000 O   0  0  0  0  0  0  0  0  0  0  0  0
   12.6332   -4.8447    0.0000 C   0  0  0  0  0  0  0  0  0  0  0  0
    9.7521   -7.0895    0.0000 O   0  0  0  0  0  0  0  0  0  0  0  0
    9.0846   -7.5744    0.0000 C   0  0  2  0  0  0  0  0  0  0  0  0
   10.4195   -7.5744    0.0000 C   0  0  2  0  0  0  0  0  0  0  0  0
   10.1646   -8.3590    0.0000 C   0  0  2  0  0  0  0  0  0  0  0  0
   10.6495   -9.0266    0.0000 O   0  0  0  0  0  0  0  0  0  0  0  0
    9.3396   -8.3590    0.0000 C   0  0  1  0  0  0  0  0  0  0  0  0
    8.8546   -9.0266    0.0000 O   0  0  0  0  0  0  0  0  0  0  0  0
    8.2999   -7.3195    0.0000 C   0  0  0  0  0  0  0  0  0  0  0  0
    7.6868   -7.8716    0.0000 O   0  0  0  0  0  0  0  0  0  0  0  0
  2  3  1  0  0  0  0
  2  4  1  0  0  0  0
  3  5  1  0  0  0  0
  4  6  1  0  0  0  0
  5  7  1  0  0  0  0
  6  7  1  0  0  0  0
  2  8  1  0  0  0  0
  3  9  1  6  0  0  0
  5 10  1  1  0  0  0
  7 11  1  1  0  0  0
  6 12  1  1  0  0  0
 13 12  1  0  0  0  0
 14 15  1  0  0  0  0
 14 16  1  0  0  0  0
 15 17  1  0  0  0  0
 16 18  1  0  0  0  0
 17 19  1  0  0  0  0
 18 19  1  0  0  0  0
 14 13  1  1  0  0  0
 15 20  1  6  0  0  0
 17 21  1  1  0  0  0
 19 22  1  1  0  0  0
 18 23  1  1  0  0  0
  1 23  1  0  0  0  0
 24 25  1  0  0  0  0
 24 26  1  0  0  0  0
 25 29  1  0  0  0  0
 25 31  1  6  0  0  0
 27 26  1  0  0  0  0
 26 21  1  1  0  0  0
 29 27  1  0  0  0  0
 27 28  1  6  0  0  0
 29 30  1  1  0  0  0
 31 32  1  0  0  0  0
M  END
> <ID>
CHEBI:61773

> <NAME>
alpha-L-Araf-(1->3)-beta-D-Galp-(1->6)-D-Galp

> <DEFINITION>
A linear trisaccharide composed of D-galactose having a α-L-arabinosyl-(1→3)-β-D-galactosyl moiety attached at the 6-position

> <STAR>
3

> <SYNONYM>
alpha-L-arabinosyl-(1->3)-beta-D-galactosyl-(1->6)-D-galactose; alpha-L-Ara-(1->3)-beta-D-Gal-(1->6)-D-Gal

> <IUPAC_NAME>
alpha-L-arabinofuranosyl-(1->3)-beta-D-galactopyranosyl-(1->6)-D-galactopyranose

> <FORMULA>
C17H30O15

> <MASS>
474.41110

> <MONOISOTOPIC_MASS>
474.15847

> <CHARGE>
0

> <SMILES>
OC[C@@H]1O[C@@H](O[C@H]2[C@@H](O)[C@@H](CO)O[C@@H](OC[C@H]3OC(O)[C@H](O)[C@@H](O)[C@H]3O)[C@@H]2O)[C@H](O)[C@H]1O

> <INCHI>
InChI=1S/C17H30O15/c18-1-4-7(20)12(25)17(31-4)32-14-9(22)5(2-19)30-16(13(14)26)28-3-6-8(21)10(23)11(24)15(27)29-6/h4-27H,1-3H2/t4-,5+,6+,7-,8-,9-,10-,11+,12+,13+,14-,15?,16+,17-/m0/s1

> <INCHIKEY>
NXZHHOFKMMSAJE-WGVCGZQMSA-N

> <PUBMED_CITATION>
7763824

$$$$

Marvin  04041115382D          

 49 52  0  0  1  0            999 V2000
   11.8973   -2.8853    0.0000 O   0  0  0  0  0  0  0  0  0  0  0  0
   11.1858   -3.2978    0.0000 C   0  0  2  0  0  0  0  0  0  0  0  0
   10.5183   -2.8129    0.0000 O   0  0  0  0  0  0  0  0  0  0  0  0
   10.9308   -4.0824    0.0000 C   0  0  2  0  0  0  0  0  0  0  0  0
   11.3434   -4.7969    0.0000 O   0  0  0  0  0  0  0  0  0  0  0  0
   10.1058   -4.0824    0.0000 C   0  0  1  0  0  0  0  0  0  0  0  0
    9.6933   -4.7969    0.0000 O   0  0  0  0  0  0  0  0  0  0  0  0
    8.8404   -2.2874    0.0000 C   0  0  0  0  0  0  0  0  0  0  0  0
    8.0435   -2.0739    0.0000 O   0  0  0  0  0  0  0  0  0  0  0  0
    9.0540   -3.0843    0.0000 C   0  0  1  0  0  0  0  0  0  0  0  0
    8.4706   -3.6677    0.0000 O   0  0  0  0  0  0  0  0  0  0  0  0
    9.8508   -3.2978    0.0000 C   0  0  2  0  0  0  0  0  0  0  0  0
    9.8508   -2.4728    0.0000 H   0  0  0  0  0  0  0  0  0  0  0  0
    7.7591   -4.0801    0.0000 C   0  0  2  0  0  0  0  0  0  0  0  0
    7.0916   -3.5952    0.0000 O   0  0  0  0  0  0  0  0  0  0  0  0
    7.5041   -4.8647    0.0000 C   0  0  2  0  0  0  0  0  0  0  0  0
    7.9167   -5.5792    0.0000 O   0  0  0  0  0  0  0  0  0  0  0  0
    6.6791   -4.8647    0.0000 C   0  0  1  0  0  0  0  0  0  0  0  0
    6.2666   -5.5792    0.0000 O   0  0  0  0  0  0  0  0  0  0  0  0
    5.4137   -3.0697    0.0000 C   0  0  0  0  0  0  0  0  0  0  0  0
    4.6168   -2.8562    0.0000 O   0  0  0  0  0  0  0  0  0  0  0  0
    5.6273   -3.8666    0.0000 C   0  0  1  0  0  0  0  0  0  0  0  0
    5.0439   -4.4499    0.0000 O   0  0  0  0  0  0  0  0  0  0  0  0
    6.4241   -4.0801    0.0000 C   0  0  2  0  0  0  0  0  0  0  0  0
    6.4241   -3.2552    0.0000 H   0  0  0  0  0  0  0  0  0  0  0  0
   15.3240   -2.1030    0.0000 O   0  0  0  0  0  0  0  0  0  0  0  0
   14.6125   -2.5155    0.0000 C   0  0  2  0  0  0  0  0  0  0  0  0
   13.9450   -2.0306    0.0000 O   0  0  0  0  0  0  0  0  0  0  0  0
   14.3575   -3.3001    0.0000 C   0  0  2  0  0  0  0  0  0  0  0  0
   14.7701   -4.0146    0.0000 O   0  0  0  0  0  0  0  0  0  0  0  0
   13.5325   -3.3001    0.0000 C   0  0  1  0  0  0  0  0  0  0  0  0
   13.1200   -4.0146    0.0000 O   0  0  0  0  0  0  0  0  0  0  0  0
   12.2671   -1.5052    0.0000 C   0  0  0  0  0  0  0  0  0  0  0  0
   11.4702   -1.2917    0.0000 O   0  0  0  0  0  0  0  0  0  0  0  0
   12.4807   -2.3020    0.0000 C   0  0  2  0  0  0  0  0  0  0  0  0
   13.2775   -2.5155    0.0000 C   0  0  2  0  0  0  0  0  0  0  0  0
   13.2775   -1.6905    0.0000 H   0  0  0  0  0  0  0  0  0  0  0  0
   18.7506   -1.3207    0.0000 O   0  0  0  0  0  0  0  0  0  0  0  0
   18.0392   -1.7332    0.0000 C   0  0  2  0  0  0  0  0  0  0  0  0
   17.3716   -1.2484    0.0000 O   0  0  0  0  0  0  0  0  0  0  0  0
   17.7841   -2.5178    0.0000 C   0  0  2  0  0  0  0  0  0  0  0  0
   18.1968   -3.2323    0.0000 O   0  0  0  0  0  0  0  0  0  0  0  0
   16.9591   -2.5178    0.0000 C   0  0  1  0  0  0  0  0  0  0  0  0
   16.5466   -3.2323    0.0000 O   0  0  0  0  0  0  0  0  0  0  0  0
   15.6938   -0.7228    0.0000 C   0  0  0  0  0  0  0  0  0  0  0  0
   14.8969   -0.5093    0.0000 O   0  0  0  0  0  0  0  0  0  0  0  0
   15.9074   -1.5197    0.0000 C   0  0  2  0  0  0  0  0  0  0  0  0
   16.7041   -1.7332    0.0000 C   0  0  2  0  0  0  0  0  0  0  0  0
   16.7041   -0.9082    0.0000 H   0  0  0  0  0  0  0  0  0  0  0  0
  2  1  1  1  0  0  0
  4  2  1  0  0  0  0
  3  2  1  0  0  0  0
  3 12  1  0  0  0  0
 12  6  1  0  0  0  0
  6  4  1  0  0  0  0
  4  5  1  6  0  0  0
  6  7  1  1  0  0  0
 12 10  1  0  0  0  0
 10  8  1  0  0  0  0
  8  9  1  0  0  0  0
 10 11  1  6  0  0  0
 12 13  1  1  0  0  0
 14 11  1  1  0  0  0
 16 14  1  0  0  0  0
 15 14  1  0  0  0  0
 15 24  1  0  0  0  0
 24 18  1  0  0  0  0
 18 16  1  0  0  0  0
 16 17  1  6  0  0  0
 18 19  1  1  0  0  0
 24 22  1  0  0  0  0
 22 20  1  0  0  0  0
 20 21  1  0  0  0  0
 22 23  1  6  0  0  0
 24 25  1  1  0  0  0
 27 26  1  1  0  0  0
 29 27  1  0  0  0  0
 28 27  1  0  0  0  0
 28 36  1  0  0  0  0
 36 31  1  0  0  0  0
 31 29  1  0  0  0  0
 29 30  1  6  0  0  0
 31 32  1  1  0  0  0
 36 35  1  0  0  0  0
 35 33  1  0  0  0  0
 33 34  1  0  0  0  0
 35  1  1  6  0  0  0
 36 37  1  1  0  0  0
 39 38  1  1  0  0  0
 41 39  1  0  0  0  0
 40 39  1  0  0  0  0
 40 48  1  0  0  0  0
 48 43  1  0  0  0  0
 43 41  1  0  0  0  0
 41 42  1  6  0  0  0
 43 44  1  1  0  0  0
 48 47  1  0  0  0  0
 47 45  1  0  0  0  0
 45 46  1  0  0  0  0
 47 26  1  6  0  0  0
 48 49  1  1  0  0  0
M  END
> <ID>
CHEBI:61775

> <NAME>
beta-D-Galf-(1->5)-beta-D-Galf-(1->5)-beta-D-Galf-(1->5)-beta-D-Galf

> <DEFINITION>
A galactotetraose composed of four β-D-galactofuranose units joined by (1→5)-linkages.

> <STAR>
3

> <SYNONYM>
beta-D-galactofuranosyl-(1->5)-beta-D-galactofuranosyl-(1->5)-beta-D-galactofuranosyl-(1->5)-beta-D-galactofuranose; [beta-D-Galf-1,5-beta-D-Galf]2; (Galf)4

> <FORMULA>
C24H42O21

> <MASS>
666.57770

> <MONOISOTOPIC_MASS>
666.22186

> <CHARGE>
0

> <SMILES>
[H][C@]1(O[C@@H](O[C@H](CO)[C@]2([H])O[C@@H](O[C@H](CO)[C@]3([H])O[C@@H](O[C@H](CO)[C@]4([H])O[C@@H](O)[C@H](O)[C@H]4O)[C@H](O)[C@H]3O)[C@H](O)[C@H]2O)[C@H](O)[C@H]1O)[C@H](O)CO

> <INCHI>
InChI=1S/C24H42O21/c25-1-5(29)17-10(31)14(35)22(43-17)40-7(3-27)19-12(33)16(37)24(45-19)41-8(4-28)20-11(32)15(36)23(44-20)39-6(2-26)18-9(30)13(34)21(38)42-18/h5-38H,1-4H2/t5-,6-,7-,8-,9-,10-,11-,12-,13-,14-,15-,16-,17+,18+,19+,20+,21-,22-,23-,24-/m1/s1

> <INCHIKEY>
WILAMSJJFXCPFB-UENSPYRXSA-N

> <KEGG_GLYCAN_ACCESSION>
G01693

> <PUBMED_CITATION>
1375195; 2426444

$$$$

Ketcher 04132016332D 1   1.00000     0.00000     0

 34 36  0     1  0            999 V2000
   21.5098  -29.9148    0.0000 O   0  0  0  0  0  0  0  0  0  0  0  0
   20.6437  -31.4148    0.0000 O   0  0  0  0  0  0  0  0  0  0  0  0
   23.2418  -30.9148    0.0000 O   0  0  0  0  0  0  0  0  0  0  0  0
   19.7777  -27.9148    0.0000 O   0  0  0  0  0  0  0  0  0  0  0  0
   21.5098  -27.9148    0.0000 O   0  0  0  0  0  0  0  0  0  0  0  0
   22.3759  -25.4148    0.0000 O   0  0  0  0  0  0  0  0  0  0  0  0
   19.7777  -30.9148    0.0000 O   0  0  0  0  0  0  0  0  0  0  0  0
   23.2418  -32.9148    0.0000 O   0  0  0  0  0  0  0  0  0  0  0  0
   18.0457  -29.9148    0.0000 O   0  0  0  0  0  0  0  0  0  0  0  0
   21.5098  -33.9148    0.0000 O   0  0  0  0  0  0  0  0  0  0  0  0
   19.7778  -26.9148    0.0000 O   0  0  0  0  0  0  0  0  0  0  0  0
   19.7778  -24.9148    0.0000 O   0  0  0  0  0  0  0  0  0  0  0  0
   23.2419  -26.9148    0.0000 O   0  0  0  0  0  0  0  0  0  0  0  0
   18.9117  -32.4148    0.0000 O   0  0  0  0  0  0  0  0  0  0  0  0
   18.0457  -26.9148    0.0000 O   0  0  0  0  0  0  0  0  0  0  0  0
   22.3759  -23.4149    0.0000 O   0  0  0  0  0  0  0  0  0  0  0  0
   20.6437  -29.4148    0.0000 C   0  0  0  0  0  0  0  0  0  0  0  0
   22.3758  -31.4148    0.0000 C   0  0  0  0  0  0  0  0  0  0  0  0
   21.5098  -30.9148    0.0000 C   0  0  0  0  0  0  0  0  0  0  0  0
   19.7777  -29.9148    0.0000 C   0  0  0  0  0  0  0  0  0  0  0  0
   20.6437  -28.4148    0.0000 C   0  0  0  0  0  0  0  0  0  0  0  0
   22.3758  -32.4148    0.0000 C   0  0  0  0  0  0  0  0  0  0  0  0
   18.9117  -29.4148    0.0000 C   0  0  0  0  0  0  0  0  0  0  0  0
   21.5098  -32.9148    0.0000 C   0  0  0  0  0  0  0  0  0  0  0  0
   20.6437  -32.4148    0.0000 C   0  0  0  0  0  0  0  0  0  0  0  0
   18.9117  -28.4148    0.0000 C   0  0  0  0  0  0  0  0  0  0  0  0
   21.5098  -26.9148    0.0000 C   0  0  0  0  0  0  0  0  0  0  0  0
   20.6438  -26.4149    0.0000 C   0  0  0  0  0  0  0  0  0  0  0  0
   20.6438  -25.4148    0.0000 C   0  0  0  0  0  0  0  0  0  0  0  0
   22.3759  -26.4149    0.0000 C   0  0  0  0  0  0  0  0  0  0  0  0
   21.5098  -24.9148    0.0000 C   0  0  0  0  0  0  0  0  0  0  0  0
   19.7777  -32.9148    0.0000 C   0  0  0  0  0  0  0  0  0  0  0  0
   18.0457  -27.9148    0.0000 C   0  0  0  0  0  0  0  0  0  0  0  0
   21.5098  -23.9149    0.0000 C   0  0  0  0  0  0  0  0  0  0  0  0
 17  1  1  1     0  0
 19  1  1  1     0  0
  2 19  1  0     0  0
  2 25  1  0     0  0
 18  3  1  1     0  0
  4 21  1  0     0  0
  4 26  1  0     0  0
 21  5  1  6     0  0
 27  5  1  1     0  0
  6 30  1  0     0  0
  6 31  1  0     0  0
 20  7  1  1     0  0
 22  8  1  1     0  0
 23  9  1  6     0  0
 24 10  1  6     0  0
 28 11  1  1     0  0
 29 12  1  6     0  0
 13 30  1  0     0  0
 14 32  1  0     0  0
 15 33  1  0     0  0
 16 34  1  0     0  0
 17 20  1  0     0  0
 17 21  1  0     0  0
 18 19  1  0     0  0
 18 22  1  0     0  0
 20 23  1  0     0  0
 22 24  1  0     0  0
 23 26  1  0     0  0
 24 25  1  0     0  0
 25 32  1  1     0  0
 26 33  1  1     0  0
 27 28  1  0     0  0
 27 30  1  0     0  0
 28 29  1  0     0  0
 29 31  1  0     0  0
 31 34  1  1     0  0
M  END
> <ID>
CHEBI:61782

> <NAME>
beta-D-Manp-(1->2)-alpha-D-Manp-(1->2)-D-Manp

> <DEFINITION>
A mannotriose consisting of three D-mannose units joined by sequential β-(1→2)- and α-(1→2)-linkages.

> <STAR>
3

> <SYNONYM>
Manpbeta1-2Manpalphal-2Man; beta-D-mannosyl-(1->2)-alpha-D-mannosyl-(1->2)-D-mannose; beta-D-Man-(1->2)-alpha-D-Man-(1->2)-D-Man; (Man)3

> <IUPAC_NAME>
beta-D-mannopyranosyl-(1->2)-alpha-D-mannopyranosyl-(1->2)-D-mannopyranose

> <FORMULA>
C18H32O16

> <MASS>
504.438

> <MONOISOTOPIC_MASS>
504.16903

> <CHARGE>
0

> <SMILES>
O([C@H]1[C@@H](O)[C@H](O)[C@H](O[C@@H]1O[C@H]2[C@@H](O)[C@H](O)[C@H](OC2O)CO)CO)[C@@H]3O[C@@H]([C@@H](O)[C@H](O)[C@@H]3O)CO

> <INCHI>
InChI=1S/C18H32O16/c19-1-4-8(23)11(26)14(16(29)30-4)33-18-15(12(27)9(24)6(3-21)32-18)34-17-13(28)10(25)7(22)5(2-20)31-17/h4-29H,1-3H2/t4-,5-,6-,7-,8-,9-,10+,11+,12+,13+,14+,15+,16?,17+,18-/m1/s1

> <INCHIKEY>
UQBIAGWOJDEOMN-OBTQOVPTSA-N

> <REAXYS_REGISTRY_NUMBER>
5780434

> <KEGG_GLYCAN_ACCESSION>
G01381

> <PUBMED_CITATION>
1373405; 3912042

$$$$

Marvin  04051117122D          

 22 23  0  0  1  0            999 V2000
   11.1747   -4.2992    0.0000 C   0  0  2  0  0  0  0  0  0  0  0  0
   11.1747   -5.1242    0.0000 C   0  0  1  0  0  0  0  0  0  0  0  0
   10.4601   -3.8867    0.0000 O   0  0  0  0  0  0  0  0  0  0  0  0
   10.4601   -5.5367    0.0000 C   0  0  2  0  0  0  0  0  0  0  0  0
    9.7457   -4.2992    0.0000 C   0  0  1  0  0  0  0  0  0  0  0  0
    9.7457   -5.1242    0.0000 C   0  0  2  0  0  0  0  0  0  0  0  0
   11.8891   -3.8867    0.0000 O   0  0  0  0  0  0  0  0  0  0  0  0
   11.8891   -5.5367    0.0000 O   0  0  0  0  0  0  0  0  0  0  0  0
   10.4601   -6.3617    0.0000 O   0  0  0  0  0  0  0  0  0  0  0  0
    9.0312   -5.5367    0.0000 O   0  0  0  0  0  0  0  0  0  0  0  0
    9.0312   -3.8867    0.0000 C   0  0  0  0  0  0  0  0  0  0  0  0
    8.3167   -4.2992    0.0000 O   0  0  0  0  0  0  0  0  0  0  0  0
    9.7457   -6.7745    0.0000 C   0  0  1  0  0  0  0  0  0  0  0  0
    9.7457   -7.5992    0.0000 C   0  0  1  0  0  0  0  0  0  0  0  0
    9.0310   -6.3620    0.0000 O   0  0  0  0  0  0  0  0  0  0  0  0
    9.0312   -8.0121    0.0000 C   0  0  1  0  0  0  0  0  0  0  0  0
    8.3168   -6.7745    0.0000 C   0  0  2  0  0  0  0  0  0  0  0  0
    8.3168   -7.5996    0.0000 C   0  0  2  0  0  0  0  0  0  0  0  0
    9.0312   -8.8371    0.0000 O   0  0  0  0  0  0  0  0  0  0  0  0
    7.6021   -8.0121    0.0000 O   0  0  0  0  0  0  0  0  0  0  0  0
    7.7908   -6.3620    0.0000 C   0  0  0  0  0  0  0  0  0  0  0  0
   10.4602   -8.0117    0.0000 O   0  0  0  0  0  0  0  0  0  0  0  0
  1  2  1  0  0  0  0
  1  3  1  0  0  0  0
  2  4  1  0  0  0  0
  3  5  1  0  0  0  0
  4  6  1  0  0  0  0
  5  6  1  0  0  0  0
  1  7  1  6  0  0  0
  2  8  1  6  0  0  0
  4  9  1  1  0  0  0
  6 10  1  1  0  0  0
  5 11  1  1  0  0  0
 12 11  1  0  0  0  0
 13 14  1  0  0  0  0
 13 15  1  0  0  0  0
 14 16  1  0  0  0  0
 15 17  1  0  0  0  0
 16 18  1  0  0  0  0
 17 18  1  0  0  0  0
 13  9  1  1  0  0  0
 16 19  1  6  0  0  0
 18 20  1  1  0  0  0
 17 21  1  6  0  0  0
 14 22  1  6  0  0  0
M  END
> <ID>
CHEBI:61783

> <NAME>
alpha-L-Rhap-(1->3)-alpha-D-Galp

> <DEFINITION>
A glycosylgalactose consisting of α-D-galactose having an α-L-rhamnosyl attached at the 3-position.

> <STAR>
3

> <SYNONYM>
alpha-L-rhamnosyl-(1->3)-alpha-D-galactose; alpha-L-Rha-(1->3)-alpha-D-Gal; 3-O-(alpha-L-rhamnopyranosyl)-alpha-D-galactopyranose; 3-O-(6-deoxy-alpha-L-mannopyranosyl)-alpha-D-galactopyranose

> <IUPAC_NAME>
alpha-L-rhamnopyranosyl-(1->3)-alpha-D-galactopyranose

> <FORMULA>
C12H22O10

> <MASS>
326.29710

> <MONOISOTOPIC_MASS>
326.12130

> <CHARGE>
0

> <SMILES>
C[C@@H]1O[C@@H](O[C@@H]2[C@@H](O)[C@@H](O)O[C@H](CO)[C@@H]2O)[C@H](O)[C@H](O)[C@H]1O

> <INCHI>
InChI=1S/C12H22O10/c1-3-5(14)7(16)8(17)12(20-3)22-10-6(15)4(2-13)21-11(19)9(10)18/h3-19H,2H2,1H3/t3-,4+,5-,6-,7+,8+,9+,10-,11-,12-/m0/s1

> <INCHIKEY>
HLLZGYFHHYGOLN-BQIKQTRHSA-N

> <REAXYS_REGISTRY_NUMBER>
5284347

> <PUBMED_CITATION>
1401945

$$$$

Marvin  04061111222D          

 40 42  0  0  1  0            999 V2000
    9.4708  -10.9337    0.0000 C   0  0  1  0  0  0  0  0  0  0  0  0
    9.4708  -11.7587    0.0000 C   0  0  1  0  0  0  0  0  0  0  0  0
    8.7563  -10.5212    0.0000 O   0  0  0  0  0  0  0  0  0  0  0  0
    8.7563  -12.1712    0.0000 C   0  0  2  0  0  0  0  0  0  0  0  0
    8.0418  -10.9337    0.0000 C   0  0  1  0  0  0  0  0  0  0  0  0
    8.0418  -11.7587    0.0000 C   0  0  2  0  0  0  0  0  0  0  0  0
   10.1853  -10.5212    0.0000 O   0  0  0  0  0  0  0  0  0  0  0  0
   10.1853  -12.1712    0.0000 O   0  0  0  0  0  0  0  0  0  0  0  0
    8.7563  -12.9962    0.0000 O   0  0  0  0  0  0  0  0  0  0  0  0
    7.3274  -12.1712    0.0000 O   0  0  0  0  0  0  0  0  0  0  0  0
    7.3274  -10.5212    0.0000 C   0  0  0  0  0  0  0  0  0  0  0  0
    6.6129  -10.9337    0.0000 O   0  0  0  0  0  0  0  0  0  0  0  0
   10.8998   -8.4587    0.0000 C   0  0  0  0  0  0  0  0  0  0  0  0
   10.8998   -9.2837    0.0000 C   0  0  1  0  0  0  0  0  0  0  0  0
   10.1853   -8.0462    0.0000 O   0  0  0  0  0  0  0  0  0  0  0  0
   10.1853   -9.6962    0.0000 C   0  0  2  0  0  0  0  0  0  0  0  0
    9.4709   -8.4587    0.0000 C   0  0  1  0  0  0  0  0  0  0  0  0
    9.4709   -9.2837    0.0000 C   0  0  2  0  0  0  0  0  0  0  0  0
   11.6143   -8.0462    0.0000 O   0  0  0  0  0  0  0  0  0  0  0  0
   11.6143   -9.6962    0.0000 N   0  0  0  0  0  0  0  0  0  0  0  0
    8.7564   -9.6962    0.0000 O   0  0  0  0  0  0  0  0  0  0  0  0
    8.7564   -8.0462    0.0000 C   0  0  0  0  0  0  0  0  0  0  0  0
    8.0419   -8.4587    0.0000 O   0  0  0  0  0  0  0  0  0  0  0  0
   12.3287   -9.2837    0.0000 C   0  0  0  0  0  0  0  0  0  0  0  0
   12.3287   -8.4587    0.0000 O   0  0  0  0  0  0  0  0  0  0  0  0
   13.0432   -9.6962    0.0000 C   0  0  0  0  0  0  0  0  0  0  0  0
   12.3288   -5.9837    0.0000 C   0  0  0  0  0  0  0  0  0  0  0  0
   12.3288   -6.8087    0.0000 C   0  0  1  0  0  0  0  0  0  0  0  0
   11.6143   -5.5712    0.0000 O   0  0  0  0  0  0  0  0  0  0  0  0
   11.6143   -7.2212    0.0000 C   0  0  2  0  0  0  0  0  0  0  0  0
   10.8999   -5.9837    0.0000 C   0  0  1  0  0  0  0  0  0  0  0  0
   10.8999   -6.8087    0.0000 C   0  0  2  0  0  0  0  0  0  0  0  0
   13.0433   -5.5712    0.0000 O   0  0  0  0  0  0  0  0  0  0  0  0
   13.0433   -7.2212    0.0000 N   0  0  0  0  0  0  0  0  0  0  0  0
   10.1854   -7.2212    0.0000 O   0  0  0  0  0  0  0  0  0  0  0  0
   10.1854   -5.5712    0.0000 C   0  0  0  0  0  0  0  0  0  0  0  0
    9.4709   -5.9837    0.0000 O   0  0  0  0  0  0  0  0  0  0  0  0
   13.7577   -6.8087    0.0000 C   0  0  0  0  0  0  0  0  0  0  0  0
   13.7577   -5.9837    0.0000 O   0  0  0  0  0  0  0  0  0  0  0  0
   14.4722   -7.2212    0.0000 C   0  0  0  0  0  0  0  0  0  0  0  0
  1  2  1  0  0  0  0
  1  3  1  0  0  0  0
  2  4  1  0  0  0  0
  3  5  1  0  0  0  0
  4  6  1  0  0  0  0
  5  6  1  0  0  0  0
  1  7  1  1  0  0  0
  2  8  1  6  0  0  0
  4  9  1  1  0  0  0
  6 10  1  1  0  0  0
  5 11  1  1  0  0  0
 12 11  1  0  0  0  0
 13 14  1  0  0  0  0
 13 15  1  0  0  0  0
 14 16  1  0  0  0  0
 15 17  1  0  0  0  0
 16 18  1  0  0  0  0
 17 18  1  0  0  0  0
 13 19  1  0  0  0  0
 14 20  1  6  0  0  0
 16  7  1  1  0  0  0
 18 21  1  1  0  0  0
 17 22  1  1  0  0  0
 23 22  1  0  0  0  0
 25 24  2  0  0  0  0
 20 24  1  0  0  0  0
 26 24  1  0  0  0  0
 27 28  1  0  0  0  0
 27 29  1  0  0  0  0
 28 30  1  0  0  0  0
 29 31  1  0  0  0  0
 30 32  1  0  0  0  0
 31 32  1  0  0  0  0
 27 33  1  0  0  0  0
 28 34  1  6  0  0  0
 30 19  1  1  0  0  0
 32 35  1  1  0  0  0
 31 36  1  1  0  0  0
 37 36  1  0  0  0  0
 39 38  2  0  0  0  0
 34 38  1  0  0  0  0
 40 38  1  0  0  0  0
M  END
> <ID>
CHEBI:61787

> <NAME>
beta-D-Galp-(1->3)-D-GalpNAc-(1->3)-D-GalpNAc

> <DEFINITION>
A linear amino trisaccharide consisting of a β-D-galactosyl residue linked (1→3) to an N-acetyl-D-glucosaminyl residue, which is in turn linked (1→3) to N-acetyl-D-glucosamine at the reducing end.

> <STAR>
3

> <SYNONYM>
beta-D-galactosyl-(1->3)-N-acetyl-D-galactosaminyl-(1->3)-N-acetyl-D-galactosamine; beta-D-galactopyranosyl-(1->3)-2-(acetylamino)-2-deoxy-D-galactopyranosyl-(1->3)-2-(acetylamino)-2-deoxy-D-galactopyranose; beta-D-Gal-(1->3)-D-GalNAc-(1->3)-D-GalNAc

> <IUPAC_NAME>
beta-D-galactopyranosyl-(1->3)-2-acetamido-2-deoxy-D-galactopyranosyl-(1->3)-2-acetamido-2-deoxy-D-galactopyranose

> <FORMULA>
C22H38N2O16

> <MASS>
586.54090

> <MONOISOTOPIC_MASS>
586.22213

> <CHARGE>
0

> <SMILES>
CC(=O)N[C@H]1C(O)O[C@H](CO)[C@H](O)[C@@H]1OC1O[C@H](CO)[C@H](O)[C@H](O[C@@H]2O[C@H](CO)[C@H](O)[C@H](O)[C@H]2O)[C@H]1NC(C)=O

> <INCHI>
InChI=1S/C22H38N2O16/c1-6(28)23-11-18(14(31)9(4-26)36-20(11)35)39-21-12(24-7(2)29)19(15(32)10(5-27)37-21)40-22-17(34)16(33)13(30)8(3-25)38-22/h8-22,25-27,30-35H,3-5H2,1-2H3,(H,23,28)(H,24,29)/t8-,9-,10-,11-,12-,13+,14+,15+,16+,17-,18-,19-,20?,21?,22+/m1/s1

> <INCHIKEY>
CATLUVBGMBLUIJ-YCBOARIPSA-N

> <PUBMED_CITATION>
59831

$$$$

Marvin  04061115412D          

 18 18  0  0  0  0            999 V2000
   -1.2670   -0.2652    0.0000 O   0  0  0  0  0  0  0  0  0  0  0  0
   -1.9814   -0.6777    0.0000 C   0  0  1  0  0  0  0  0  0  0  0  0
   -1.9814   -1.5027    0.0000 C   0  0  2  0  0  0  0  0  0  0  0  0
   -1.2670   -1.9152    0.0000 C   0  0  1  0  0  0  0  0  0  0  0  0
   -0.5525   -1.5027    0.0000 C   0  0  2  0  0  0  0  0  0  0  0  0
   -0.5525   -0.6777    0.0000 C   0  0  0  0  0  0  0  0  0  0  0  0
    0.1620   -0.2652    0.0000 O   0  0  0  0  0  0  0  0  0  0  0  0
    0.1620   -1.9152    0.0000 N   0  0  0  0  0  0  0  0  0  0  0  0
   -2.6959   -1.9152    0.0000 O   0  0  0  0  0  0  0  0  0  0  0  0
   -1.2670   -2.7402    0.0000 O   0  0  0  0  0  0  0  0  0  0  0  0
   -2.6959   -0.2652    0.0000 O   0  0  0  0  0  0  0  0  0  0  0  0
    0.1620   -2.7402    0.0000 C   0  0  0  0  0  0  0  0  0  0  0  0
    0.8764   -3.1527    0.0000 C   0  0  0  0  0  0  0  0  0  0  0  0
   -0.5525   -3.1527    0.0000 O   0  0  0  0  0  0  0  0  0  0  0  0
   -3.4103   -0.6777    0.0000 S   0  0  0  0  0  0  0  0  0  0  0  0
   -4.1248   -1.0902    0.0000 O   0  0  0  0  0  0  0  0  0  0  0  0
   -3.8228    0.0368    0.0000 O   0  0  0  0  0  0  0  0  0  0  0  0
   -2.9978   -1.3922    0.0000 O   0  0  0  0  0  0  0  0  0  0  0  0
  1  2  1  0  0  0  0
  1  6  1  0  0  0  0
  2  3  1  0  0  0  0
  3  4  1  0  0  0  0
  4  5  1  0  0  0  0
  5  6  1  0  0  0  0
  6  7  1  0  0  0  0
  5  8  1  6  0  0  0
  3  9  1  6  0  0  0
  4 10  1  1  0  0  0
  2 11  1  1  0  0  0
  8 12  1  0  0  0  0
 12 13  1  0  0  0  0
 12 14  2  0  0  0  0
 11 15  1  0  0  0  0
 15 16  1  0  0  0  0
 15 17  2  0  0  0  0
 15 18  2  0  0  0  0
M  END
> <ID>
CHEBI:61791

> <NAME>
N-acetyl-6-O-sulfo-D-glucosamine

> <DEFINITION>
The monosaccharide sulfate formed by sulfating N-acetyl-D-glucosamine at O6.

> <STAR>
3

> <SYNONYM>
6-O-sulfo-GlcNAc; (SO3)->6-GlcNAc

> <IUPAC_NAME>
2-acetamido-2-deoxy-6-O-sulfo-D-glucopyranose

> <FORMULA>
C7H13NO9S

> <MASS>
287.24400

> <MONOISOTOPIC_MASS>
287.03110

> <CHARGE>
0

> <SMILES>
CC(=O)N[C@H]1C(O)O[C@H](OS(O)(=O)=O)[C@@H](O)[C@@H]1O

> <INCHI>
InChI=1S/C7H13NO9S/c1-2(9)8-3-4(10)5(11)7(16-6(3)12)17-18(13,14)15/h3-7,10-12H,1H3,(H,8,9)(H,13,14,15)/t3-,4-,5+,6?,7-/m1/s1

> <INCHIKEY>
VEZIBRSKPYBVCG-DXDUYESSSA-N

> <REAXYS_REGISTRY_NUMBER>
21870660

> <PUBMED_CITATION>
15697247; 22846255

$$$$

Marvin  04061116192D          

 39 41  0  0  1  0            999 V2000
   10.4049   -9.1182    0.0000 C   0  0  1  0  0  0  0  0  0  0  0  0
   10.4049   -9.9432    0.0000 C   0  0  1  0  0  0  0  0  0  0  0  0
    9.6903   -8.7058    0.0000 O   0  0  0  0  0  0  0  0  0  0  0  0
    9.6903  -10.3558    0.0000 C   0  0  2  0  0  0  0  0  0  0  0  0
    8.9758   -9.1182    0.0000 C   0  0  1  0  0  0  0  0  0  0  0  0
    8.9758   -9.9432    0.0000 C   0  0  1  0  0  0  0  0  0  0  0  0
   11.1193   -8.7057    0.0000 O   0  0  0  0  0  0  0  0  0  0  0  0
   11.1193  -10.3558    0.0000 O   0  0  0  0  0  0  0  0  0  0  0  0
    9.6903  -11.1808    0.0000 O   0  0  0  0  0  0  0  0  0  0  0  0
    8.2612  -10.3558    0.0000 N   0  0  0  0  0  0  0  0  0  0  0  0
    8.2612   -8.7058    0.0000 C   0  0  0  0  0  0  0  0  0  0  0  0
   11.8338   -9.9432    0.0000 C   0  0  0  0  0  0  0  0  0  0  0  0
    7.5437   -9.9432    0.0000 C   0  0  0  0  0  0  0  0  0  0  0  0
    6.1148   -9.9444    0.0000 C   0  0  0  0  0  0  0  0  0  0  0  0
    7.5437   -9.1182    0.0000 O   0  0  0  0  0  0  0  0  0  0  0  0
    6.1148   -9.1194    0.0000 O   0  0  0  0  0  0  0  0  0  0  0  0
    5.5283  -10.5308    0.0000 C   0  0  0  0  0  0  0  0  0  0  0  0
    5.3195   -9.7257    0.0000 C   0  0  0  0  0  0  0  0  0  0  0  0
   11.8338   -6.6432    0.0000 C   0  0  1  0  0  0  0  0  0  0  0  0
   11.8338   -7.4682    0.0000 C   0  0  1  0  0  0  0  0  0  0  0  0
   11.1193   -6.2307    0.0000 O   0  0  0  0  0  0  0  0  0  0  0  0
   11.1193   -7.8807    0.0000 C   0  0  1  0  0  0  0  0  0  0  0  0
   10.4049   -6.6432    0.0000 C   0  0  2  0  0  0  0  0  0  0  0  0
   10.4049   -7.4682    0.0000 C   0  0  2  0  0  0  0  0  0  0  0  0
   12.5483   -6.2305    0.0000 O   0  0  0  0  0  0  0  0  0  0  0  0
   12.5483   -7.8807    0.0000 O   0  0  0  0  0  0  0  0  0  0  0  0
    9.6904   -7.8805    0.0000 O   0  0  0  0  0  0  0  0  0  0  0  0
    9.6904   -6.2307    0.0000 C   0  0  0  0  0  0  0  0  0  0  0  0
   13.2629   -4.1680    0.0000 C   0  0  1  0  0  0  0  0  0  0  0  0
   13.2629   -4.9930    0.0000 C   0  0  1  0  0  0  0  0  0  0  0  0
   12.5483   -3.7555    0.0000 O   0  0  0  0  0  0  0  0  0  0  0  0
   12.5483   -5.4055    0.0000 C   0  0  1  0  0  0  0  0  0  0  0  0
   11.8339   -4.1680    0.0000 C   0  0  2  0  0  0  0  0  0  0  0  0
   11.8339   -4.9930    0.0000 C   0  0  2  0  0  0  0  0  0  0  0  0
   13.9773   -3.7555    0.0000 O   0  0  0  0  0  0  0  0  0  0  0  0
   13.9773   -5.4057    0.0000 O   0  0  0  0  0  0  0  0  0  0  0  0
   11.1194   -5.4055    0.0000 O   0  0  0  0  0  0  0  0  0  0  0  0
   11.1194   -3.7555    0.0000 C   0  0  0  0  0  0  0  0  0  0  0  0
    6.8296  -10.3563    0.0000 C   0  0  0  0  0  0  0  0  0  0  0  0
  1  2  1  0  0  0  0
  1  3  1  0  0  0  0
  2  4  1  0  0  0  0
  3  5  1  0  0  0  0
  4  6  1  0  0  0  0
  5  6  1  0  0  0  0
  1  7  1  1  0  0  0
  2  8  1  6  0  0  0
  4  9  1  1  0  0  0
  6 10  1  6  0  0  0
  5 11  1  1  0  0  0
  8 12  1  0  0  0  0
 10 13  1  0  0  0  0
 13 15  2  0  0  0  0
 14 16  1  0  0  0  0
 14 17  1  0  0  0  0
 14 18  1  0  0  0  0
 19 20  1  0  0  0  0
 19 21  1  0  0  0  0
 20 22  1  0  0  0  0
 21 23  1  0  0  0  0
 22 24  1  0  0  0  0
 23 24  1  0  0  0  0
 19 25  1  1  0  0  0
 20 26  1  6  0  0  0
 22  7  1  6  0  0  0
 24 27  1  1  0  0  0
 23 28  1  6  0  0  0
 29 30  1  0  0  0  0
 29 31  1  0  0  0  0
 30 32  1  0  0  0  0
 31 33  1  0  0  0  0
 32 34  1  0  0  0  0
 33 34  1  0  0  0  0
 29 35  1  1  0  0  0
 30 36  1  6  0  0  0
 32 25  1  6  0  0  0
 34 37  1  1  0  0  0
 33 38  1  6  0  0  0
 13 39  1  0  0  0  0
 39 14  1  0  0  0  0
M  END
> <ID>
CHEBI:61792

> <NAME>
beta-anthropyranosyl-(1->3)-alpha-L-rhamnopyranosyl-(1->3)-alpha-L-rhamnopyranose

> <DEFINITION>
A linear amino tetrasaccharide comprising β-anthrose at the non-reducing end and two α-L-rhamnose units joined by sequential (1→3)- and (1→2)-linkages.

> <STAR>
3

> <SYNONYM>
beta-anthrosyl-(1->3)-alpha-L-rhamnosyl-(1->3)-alpha-L-rhamnose; 4,6-dideoxy-4-[(3-hydroxy-3-methylbutanoyl)amino]-2-O-methyl-beta-D-glucosyl-(1->3)-alpha-L-rhamnosyl-(1->3)-alpha-L-rhamnose; 4,6-dideoxy-4-[(3-hydroxy-3-methylbutanoyl)amino]-2-O-methyl-beta-D-glucopyranosyl-(1->3)-6-deoxy-alpha-L-mannopyranosyl-(1->3)-6-deoxy-alpha-L-mannopyranose

> <IUPAC_NAME>
4,6-dideoxy-4-[(3-hydroxy-3-methylbutanoyl)amino]-2-O-methyl-beta-D-glucopyranosyl-(1->3)-alpha-L-rhamnopyranosyl-(1->3)-alpha-L-rhamnopyranose

> <FORMULA>
C24H43NO14

> <MASS>
569.59650

> <MONOISOTOPIC_MASS>
569.26836

> <CHARGE>
0

> <SMILES>
CO[C@@H]1[C@@H](O)[C@H](NC(=O)CC(C)(C)O)[C@@H](C)O[C@H]1O[C@@H]1[C@@H](O)[C@H](C)O[C@@H](O[C@@H]2[C@@H](O)[C@H](C)O[C@@H](O)[C@@H]2O)[C@@H]1O

> <INCHI>
InChI=1S/C24H43NO14/c1-8-12(25-11(26)7-24(4,5)33)15(29)20(34-6)23(36-8)39-19-14(28)10(3)37-22(17(19)31)38-18-13(27)9(2)35-21(32)16(18)30/h8-10,12-23,27-33H,7H2,1-6H3,(H,25,26)/t8-,9+,10+,12-,13+,14+,15+,16-,17-,18-,19-,20-,21-,22+,23+/m1/s1

> <INCHIKEY>
PQFHDYATQNVYHS-RXJHVRFISA-N

> <PUBMED_CITATION>
20024115

$$$$

Marvin  04071119572D          

 26 27  0  0  1  0            999 V2000
    5.8527  -10.7747    0.0000 C   0  0  2  0  0  0  0  0  0  0  0  0
    5.8527  -11.5997    0.0000 C   0  0  1  0  0  0  0  0  0  0  0  0
    5.1382  -10.3622    0.0000 O   0  0  0  0  0  0  0  0  0  0  0  0
    5.1382  -12.0122    0.0000 C   0  0  2  0  0  0  0  0  0  0  0  0
    4.4238  -10.7747    0.0000 C   0  0  1  0  0  0  0  0  0  0  0  0
    4.4238  -11.5997    0.0000 C   0  0  2  0  0  0  0  0  0  0  0  0
    6.5672  -10.3622    0.0000 O   0  0  0  0  0  0  0  0  0  0  0  0
    6.5672  -12.0122    0.0000 O   0  0  0  0  0  0  0  0  0  0  0  0
    5.1382  -12.8372    0.0000 O   0  0  0  0  0  0  0  0  0  0  0  0
    3.7093  -12.0122    0.0000 O   0  0  0  0  0  0  0  0  0  0  0  0
    3.7093  -10.3622    0.0000 C   0  0  0  0  0  0  0  0  0  0  0  0
    2.9948  -10.7747    0.0000 O   0  0  0  0  0  0  0  0  0  0  0  0
    8.7106   -9.1247    0.0000 C   0  0  0  0  0  0  0  0  0  0  0  0
    8.7106   -9.9497    0.0000 C   0  0  1  0  0  0  0  0  0  0  0  0
    7.9961   -8.7122    0.0000 O   0  0  0  0  0  0  0  0  0  0  0  0
    7.9961  -10.3622    0.0000 C   0  0  2  0  0  0  0  0  0  0  0  0
    7.2817   -9.1247    0.0000 C   0  0  1  0  0  0  0  0  0  0  0  0
    7.2817   -9.9497    0.0000 C   0  0  1  0  0  0  0  0  0  0  0  0
    9.4251   -8.7122    0.0000 O   0  0  0  0  0  0  0  0  0  0  0  0
    9.4251  -10.3622    0.0000 N   0  0  0  0  0  0  0  0  0  0  0  0
    7.9961  -11.1872    0.0000 O   0  0  0  0  0  0  0  0  0  0  0  0
    6.5672   -8.7122    0.0000 C   0  0  0  0  0  0  0  0  0  0  0  0
    5.8527   -9.1247    0.0000 O   0  0  0  0  0  0  0  0  0  0  0  0
   10.1396   -9.9497    0.0000 C   0  0  0  0  0  0  0  0  0  0  0  0
   10.1396   -9.1247    0.0000 O   0  0  0  0  0  0  0  0  0  0  0  0
   10.8540  -10.3622    0.0000 C   0  0  0  0  0  0  0  0  0  0  0  0
  1  2  1  0  0  0  0
  1  3  1  0  0  0  0
  2  4  1  0  0  0  0
  3  5  1  0  0  0  0
  4  6  1  0  0  0  0
  5  6  1  0  0  0  0
  1  7  1  6  0  0  0
  2  8  1  6  0  0  0
  4  9  1  1  0  0  0
  6 10  1  1  0  0  0
  5 11  1  1  0  0  0
 12 11  1  0  0  0  0
 13 14  1  0  0  0  0
 13 15  1  0  0  0  0
 14 16  1  0  0  0  0
 15 17  1  0  0  0  0
 16 18  1  0  0  0  0
 17 18  1  0  0  0  0
 13 19  1  0  0  0  0
 14 20  1  6  0  0  0
 16 21  1  1  0  0  0
 18  7  1  6  0  0  0
 17 22  1  1  0  0  0
 23 22  1  0  0  0  0
 25 24  2  0  0  0  0
 20 24  1  0  0  0  0
 26 24  1  0  0  0  0
M  END
> <ID>
CHEBI:61803

> <NAME>
Galp-alpha-(1->4)-GlcpNAc

> <DEFINITION>
An amino disaccharide formed of α-D-galactopyranose in (1→4)-linkage with 2-acetamido-2-deoxyglucopyranose.

> <STAR>
3

> <SYNONYM>
Galpalpha(1->4)GlcpNAc; Galalpha(1->4)GlcNAc; Gal-alpha1,4-GlcNAc; Gal-alpha-(1->4)-GlcNAc; alpha-D-galactosyl-(1->4)-N-acetylglucosamine; 2-acetamido-2-deoxy-4-O-alpha-D-galactopyranosyl-D-glucopyranose; 2-(acetylamino)-2-deoxy-4-O-alpha-D-galactopyranosyl-D-glucopyranose; (Gal)1 (GlcNAc)1

> <IUPAC_NAME>
alpha-D-galactopyranosyl-(1->4)-2-acetamido-2-deoxyglucopyranose

> <FORMULA>
C14H25NO11

> <MASS>
383.34840

> <MONOISOTOPIC_MASS>
383.14276

> <CHARGE>
0

> <SMILES>
CC(=O)N[C@H]1C(O)O[C@H](CO)[C@@H](O[C@H]2O[C@H](CO)[C@H](O)[C@H](O)[C@H]2O)[C@@H]1O

> <INCHI>
InChI=1S/C14H25NO11/c1-4(18)15-7-9(20)12(6(3-17)24-13(7)23)26-14-11(22)10(21)8(19)5(2-16)25-14/h5-14,16-17,19-23H,2-3H2,1H3,(H,15,18)/t5-,6-,7-,8+,9-,10+,11-,12-,13?,14-/m1/s1

> <INCHIKEY>
KFEUJDWYNGMDBV-RQUKUCDMSA-N

> <KEGG_GLYCAN_ACCESSION>
G02589

> <PUBMED_CITATION>
17006649; 17991151

$$$$

Marvin  04081109242D          

 45 48  0  0  1  0            999 V2000
    7.0853   -9.2440    0.0000 C   0  0  2  0  0  0  0  0  0  0  0  0
    7.0853  -10.0690    0.0000 C   0  0  1  0  0  0  0  0  0  0  0  0
    6.3707   -8.8315    0.0000 O   0  0  0  0  0  0  0  0  0  0  0  0
    6.3707  -10.4815    0.0000 C   0  0  2  0  0  0  0  0  0  0  0  0
    5.6563   -9.2440    0.0000 C   0  0  1  0  0  0  0  0  0  0  0  0
    5.6563  -10.0690    0.0000 C   0  0  2  0  0  0  0  0  0  0  0  0
    7.7997   -8.8315    0.0000 O   0  0  0  0  0  0  0  0  0  0  0  0
    7.7997  -10.4815    0.0000 O   0  0  0  0  0  0  0  0  0  0  0  0
    6.3707  -11.3065    0.0000 O   0  0  0  0  0  0  0  0  0  0  0  0
    4.9418  -10.4815    0.0000 O   0  0  0  0  0  0  0  0  0  0  0  0
    4.9418   -8.8315    0.0000 C   0  0  0  0  0  0  0  0  0  0  0  0
    4.2273   -9.2440    0.0000 O   0  0  0  0  0  0  0  0  0  0  0  0
    9.9432   -7.5940    0.0000 C   0  0  1  0  0  0  0  0  0  0  0  0
    9.9432   -8.4190    0.0000 C   0  0  1  0  0  0  0  0  0  0  0  0
    9.2286   -7.1815    0.0000 O   0  0  0  0  0  0  0  0  0  0  0  0
    9.2286   -8.8315    0.0000 C   0  0  2  0  0  0  0  0  0  0  0  0
    8.5142   -7.5940    0.0000 C   0  0  1  0  0  0  0  0  0  0  0  0
    8.5142   -8.4190    0.0000 C   0  0  2  0  0  0  0  0  0  0  0  0
   10.6576   -7.1815    0.0000 O   0  0  0  0  0  0  0  0  0  0  0  0
   10.6576   -8.8315    0.0000 O   0  0  0  0  0  0  0  0  0  0  0  0
    9.2286   -9.6565    0.0000 O   0  0  0  0  0  0  0  0  0  0  0  0
    7.7997   -7.1815    0.0000 C   0  0  0  0  0  0  0  0  0  0  0  0
    7.0853   -7.5940    0.0000 O   0  0  0  0  0  0  0  0  0  0  0  0
   11.3722   -5.1190    0.0000 C   0  0  1  0  0  0  0  0  0  0  0  0
   11.3722   -5.9440    0.0000 C   0  0  1  0  0  0  0  0  0  0  0  0
   10.6576   -4.7065    0.0000 O   0  0  0  0  0  0  0  0  0  0  0  0
   10.6576   -6.3565    0.0000 C   0  0  2  0  0  0  0  0  0  0  0  0
    9.9432   -5.1190    0.0000 C   0  0  1  0  0  0  0  0  0  0  0  0
    9.9432   -5.9440    0.0000 C   0  0  2  0  0  0  0  0  0  0  0  0
   12.0866   -4.7065    0.0000 O   0  0  0  0  0  0  0  0  0  0  0  0
   12.0866   -6.3565    0.0000 O   0  0  0  0  0  0  0  0  0  0  0  0
    9.2287   -6.3565    0.0000 O   0  0  0  0  0  0  0  0  0  0  0  0
    9.2287   -4.7065    0.0000 C   0  0  0  0  0  0  0  0  0  0  0  0
    8.5142   -5.1190    0.0000 O   0  0  0  0  0  0  0  0  0  0  0  0
   14.2301   -3.4690    0.0000 C   0  0  0  0  0  0  0  0  0  0  0  0
   14.2301   -4.2940    0.0000 C   0  0  1  0  0  0  0  0  0  0  0  0
   13.5155   -3.0565    0.0000 O   0  0  0  0  0  0  0  0  0  0  0  0
   13.5155   -4.7065    0.0000 C   0  0  2  0  0  0  0  0  0  0  0  0
   12.8011   -3.4690    0.0000 C   0  0  1  0  0  0  0  0  0  0  0  0
   12.8011   -4.2940    0.0000 C   0  0  1  0  0  0  0  0  0  0  0  0
   14.9445   -3.0565    0.0000 O   0  0  0  0  0  0  0  0  0  0  0  0
   14.9445   -4.7065    0.0000 O   0  0  0  0  0  0  0  0  0  0  0  0
   13.5155   -5.5315    0.0000 O   0  0  0  0  0  0  0  0  0  0  0  0
   12.0866   -3.0565    0.0000 C   0  0  0  0  0  0  0  0  0  0  0  0
   11.3722   -3.4690    0.0000 O   0  0  0  0  0  0  0  0  0  0  0  0
  1  2  1  0  0  0  0
  1  3  1  0  0  0  0
  2  4  1  0  0  0  0
  3  5  1  0  0  0  0
  4  6  1  0  0  0  0
  5  6  1  0  0  0  0
  1  7  1  6  0  0  0
  2  8  1  6  0  0  0
  4  9  1  1  0  0  0
  6 10  1  1  0  0  0
  5 11  1  1  0  0  0
 12 11  1  0  0  0  0
 13 14  1  0  0  0  0
 13 15  1  0  0  0  0
 14 16  1  0  0  0  0
 15 17  1  0  0  0  0
 16 18  1  0  0  0  0
 17 18  1  0  0  0  0
 13 19  1  1  0  0  0
 14 20  1  6  0  0  0
 16 21  1  1  0  0  0
 18  7  1  1  0  0  0
 17 22  1  1  0  0  0
 23 22  1  0  0  0  0
 24 25  1  0  0  0  0
 24 26  1  0  0  0  0
 25 27  1  0  0  0  0
 26 28  1  0  0  0  0
 27 29  1  0  0  0  0
 28 29  1  0  0  0  0
 24 30  1  1  0  0  0
 25 31  1  6  0  0  0
 27 19  1  1  0  0  0
 29 32  1  1  0  0  0
 28 33  1  1  0  0  0
 34 33  1  0  0  0  0
 35 36  1  0  0  0  0
 35 37  1  0  0  0  0
 36 38  1  0  0  0  0
 37 39  1  0  0  0  0
 38 40  1  0  0  0  0
 39 40  1  0  0  0  0
 35 41  1  0  0  0  0
 36 42  1  6  0  0  0
 38 43  1  1  0  0  0
 40 30  1  6  0  0  0
 39 44  1  1  0  0  0
 45 44  1  0  0  0  0
M  END
> <ID>
CHEBI:61805

> <NAME>
alpha-D-Galp-(1->4)-beta-D-Galp-(1->3)-beta-D-Galp-(1->4)-D-Glcp

> <DEFINITION>
A linear tetrasaccharide comprising three successive D-galactosyl residues and a glucosyl residue at the reducing end joined by sequential α-(1→4)-, β-(1→3)- and β-(1→4)-linkages.

> <STAR>
3

> <SYNONYM>
Galp-alpha-(1->4)-Galp-beta-(1->3)-Galp-beta-(1->4)-Glcp; Galalpha(1->4)Galbeta(1->3)Galbeta(1->4)Glc; Gal-alpha-(1->4)-Gal-beta-(1->3)-Gal-beta-(1->4)-Glc; alpha-D-galactosyl-(1->4)-beta-D-galactosyl-(1->3)-beta-D-galactosyl-(1->4)-D-glucose; alpha-D-Gal-(1->4)-beta-D-Gal-(1->3)-beta-D-Gal-(1->4)-D-Glc

> <IUPAC_NAME>
alpha-D-galactopyranosyl-(1->4)-beta-D-galactopyranosyl-(1->3)-beta-D-galactopyranosyl-(1->4)-D-glucopyranose

> <FORMULA>
C24H42O21

> <MASS>
666.57770

> <MONOISOTOPIC_MASS>
666.22186

> <CHARGE>
0

> <SMILES>
OC[C@H]1O[C@H](O[C@H]2[C@@H](CO)O[C@@H](O[C@H]3[C@@H](O)[C@@H](CO)O[C@@H](O[C@@H]4[C@@H](CO)OC(O)[C@H](O)[C@H]4O)[C@@H]3O)[C@H](O)[C@H]2O)[C@H](O)[C@@H](O)[C@H]1O

> <INCHI>
InChI=1S/C24H42O21/c25-1-5-9(29)11(31)15(35)22(40-5)43-19-8(4-28)42-23(16(36)13(19)33)45-20-10(30)6(2-26)41-24(17(20)37)44-18-7(3-27)39-21(38)14(34)12(18)32/h5-38H,1-4H2/t5-,6-,7-,8-,9+,10+,11+,12-,13-,14-,15-,16-,17-,18-,19+,20+,21?,22-,23+,24+/m1/s1

> <INCHIKEY>
AFDQDPIWXNGUOF-ZUNYBDFFSA-N

> <PUBMED_CITATION>
17006649

$$$$

Marvin  04081110482D          

 22 23  0  0  1  0            999 V2000
   11.6349   -4.4139    0.0000 O   0  0  0  0  0  0  0  0  0  0  0  0
   10.9203   -3.1764    0.0000 C   0  0  1  0  0  0  0  0  0  0  0  0
   10.9203   -4.0014    0.0000 C   0  0  1  0  0  0  0  0  0  0  0  0
   10.2058   -2.7639    0.0000 O   0  0  0  0  0  0  0  0  0  0  0  0
   10.2058   -4.4139    0.0000 C   0  0  1  0  0  0  0  0  0  0  0  0
    9.4914   -3.1764    0.0000 C   0  0  2  0  0  0  0  0  0  0  0  0
    9.4914   -4.0014    0.0000 C   0  0  2  0  0  0  0  0  0  0  0  0
   11.6349   -2.7639    0.0000 O   0  0  0  0  0  0  0  0  0  0  0  0
   10.2058   -5.2389    0.0000 O   0  0  0  0  0  0  0  0  0  0  0  0
    8.7770   -4.4139    0.0000 O   0  0  0  0  0  0  0  0  0  0  0  0
    8.7770   -2.7639    0.0000 C   0  0  0  0  0  0  0  0  0  0  0  0
    9.4914   -5.6514    0.0000 C   0  0  2  0  0  0  0  0  0  0  0  0
    9.4914   -6.4764    0.0000 C   0  0  1  0  0  0  0  0  0  0  0  0
    8.7767   -5.2389    0.0000 O   0  0  0  0  0  0  0  0  0  0  0  0
    8.7767   -6.8889    0.0000 C   0  0  2  0  0  0  0  0  0  0  0  0
    8.0624   -5.6514    0.0000 C   0  0  1  0  0  0  0  0  0  0  0  0
    8.0624   -6.4764    0.0000 C   0  0  1  0  0  0  0  0  0  0  0  0
   10.2058   -6.8889    0.0000 O   0  0  0  0  0  0  0  0  0  0  0  0
    8.7767   -7.7139    0.0000 O   0  0  0  0  0  0  0  0  0  0  0  0
    7.3478   -6.8889    0.0000 O   0  0  0  0  0  0  0  0  0  0  0  0
    7.3478   -5.2389    0.0000 C   0  0  0  0  0  0  0  0  0  0  0  0
    6.6334   -5.6514    0.0000 O   0  0  0  0  0  0  0  0  0  0  0  0
  2  3  1  0  0  0  0
  2  4  1  0  0  0  0
  3  5  1  0  0  0  0
  4  6  1  0  0  0  0
  5  7  1  0  0  0  0
  6  7  1  0  0  0  0
  2  8  1  1  0  0  0
  3  1  1  6  0  0  0
  5  9  1  6  0  0  0
  7 10  1  1  0  0  0
  6 11  1  6  0  0  0
 12 13  1  0  0  0  0
 12 14  1  0  0  0  0
 13 15  1  0  0  0  0
 14 16  1  0  0  0  0
 15 17  1  0  0  0  0
 16 17  1  0  0  0  0
 12  9  1  6  0  0  0
 13 18  1  6  0  0  0
 15 19  1  1  0  0  0
 17 20  1  6  0  0  0
 16 21  1  1  0  0  0
 22 21  1  0  0  0  0
M  END
> <ID>
CHEBI:61806

> <NAME>
alpha-D-Glcp-(1->3)-alpha-L-Rhap

> <DEFINITION>
An α-D-Glcp-(1→3)-L-Rhap in which the carbon bearing the anomeric hydroxy group has α configuration.

> <STAR>
3

> <SYNONYM>
alpha-D-glucosyl-(1->3)-alpha-L-rhamnose; alpha-D-Glc-(1->3)-alpha-L-Rha; 6-deoxy-3-O-alpha-D-glucopyranosyl-alpha-L-mannopyranose; 3-O-alpha-D-glucopyranosyl-alpha-L-rhamnopyranose

> <IUPAC_NAME>
alpha-D-glucopyranosyl-(1->3)-alpha-L-rhamnopyranose

> <FORMULA>
C12H22O10

> <MASS>
326.29710

> <MONOISOTOPIC_MASS>
326.12130

> <CHARGE>
0

> <SMILES>
C[C@@H]1O[C@@H](O)[C@H](O)[C@H](O[C@H]2O[C@H](CO)[C@@H](O)[C@H](O)[C@H]2O)[C@H]1O

> <INCHI>
InChI=1S/C12H22O10/c1-3-5(14)10(9(18)11(19)20-3)22-12-8(17)7(16)6(15)4(2-13)21-12/h3-19H,2H2,1H3/t3-,4+,5-,6+,7-,8+,9+,10+,11+,12+/m0/s1

> <INCHIKEY>
QOVCLNNAYZUHEK-VUXNLZLLSA-N

> <REAXYS_REGISTRY_NUMBER>
6065186

> <PUBMED_CITATION>
19451241

$$$$

Ketcher 05182012212D 1   1.00000     0.00000     0

 36 37  0     1  0            999 V2000
   18.5606  -16.1186    0.0000 O   0  0  0  0  0  0  0  0  0  0  0  0
   17.6938  -16.6189    0.0000 C   0  0  0  0  0  0  0  0  0  0  0  0
   17.6938  -17.6199    0.0000 C   0  0  0  0  0  0  0  0  0  0  0  0
   16.8268  -16.1186    0.0000 O   0  0  0  0  0  0  0  0  0  0  0  0
   16.8268  -18.1204    0.0000 C   0  0  0  0  0  0  0  0  0  0  0  0
   15.9600  -16.6189    0.0000 C   0  0  0  0  0  0  0  0  0  0  0  0
   15.9600  -17.6199    0.0000 C   0  0  0  0  0  0  0  0  0  0  0  0
   16.8268  -19.0369    0.0000 O   0  0  0  0  0  0  0  0  0  0  0  0
   15.0931  -18.1204    0.0000 O   0  0  0  0  0  0  0  0  0  0  0  0
   15.0931  -16.1186    0.0000 C   0  0  0  0  0  0  0  0  0  0  0  0
   14.2263  -16.6189    0.0000 O   0  0  0  0  0  0  0  0  0  0  0  0
   18.5606  -19.1213    0.0000 C   0  0  0  0  0  0  0  0  0  0  0  0
   17.6937  -19.6218    0.0000 O   0  0  0  0  0  0  0  0  0  0  0  0
   18.5606  -18.1204    0.0000 N   0  0  0  0  0  0  0  0  0  0  0  0
   19.4275  -19.6218    0.0000 C   0  0  0  0  0  0  0  0  0  0  0  0
   13.3595  -17.1194    0.0000 C   0  0  0  0  0  0  0  0  0  0  0  0
   13.3595  -18.1205    0.0000 C   0  0  0  0  0  0  0  0  0  0  0  0
   12.4926  -18.6209    0.0000 C   0  0  0  0  0  0  0  0  0  0  0  0
   11.6257  -18.1204    0.0000 C   0  0  0  0  0  0  0  0  0  0  0  0
   12.4926  -16.6189    0.0000 O   0  0  0  0  0  0  0  0  0  0  0  0
   11.6258  -17.1194    0.0000 C   0  0  0  0  0  0  0  0  0  0  0  0
   12.5072  -19.6761    0.0000 O   0  0  0  0  0  0  0  0  0  0  0  0
   13.3595  -16.1186    0.0000 C   0  0  0  0  0  0  0  0  0  0  0  0
   12.4926  -15.6179    0.0000 O   0  0  0  0  0  0  0  0  0  0  0  0
   14.2265  -15.6179    0.0000 O   0  0  0  0  0  0  0  0  0  0  0  0
   10.7588  -18.6207    0.0000 N   0  0  0  0  0  0  0  0  0  0  0  0
   10.7587  -19.6218    0.0000 C   0  0  0  0  0  0  0  0  0  0  0  0
    9.8918  -20.1223    0.0000 C   0  0  0  0  0  0  0  0  0  0  0  0
   11.6256  -20.1223    0.0000 O   0  0  0  0  0  0  0  0  0  0  0  0
   10.7589  -16.6189    0.0000 C   0  0  0  0  0  0  0  0  0  0  0  0
   10.7590  -15.6179    0.0000 O   0  0  0  0  0  0  0  0  0  0  0  0
    9.8921  -17.1193    0.0000 C   0  0  0  0  0  0  0  0  0  0  0  0
    9.0252  -16.6188    0.0000 C   0  0  0  0  0  0  0  0  0  0  0  0
    9.8920  -18.1203    0.0000 O   0  0  0  0  0  0  0  0  0  0  0  0
   11.6258  -16.1243    0.0000 H   0  0  0  0  0  0  0  0  0  0  0  0
    9.0252  -15.6188    0.0000 O   0  0  0  0  0  0  0  0  0  0  0  0
  2  3  1  0     0  0
  2  4  1  0     0  0
  3  5  1  0     0  0
  4  6  1  0     0  0
  5  7  1  0     0  0
  6  7  1  0     0  0
  2  1  1  6     0  0
  5  8  1  1     0  0
  7  9  1  1     0  0
  6 10  1  1     0  0
 11 10  1  0     0  0
 13 12  2  0     0  0
 14 12  1  0     0  0
 15 12  1  0     0  0
  3 14  1  6     0  0
 18 17  1  0     0  0
 16 17  1  0     0  0
 19 18  1  0     0  0
 20 16  1  0     0  0
 21 19  1  0     0  0
 21 20  1  0     0  0
 18 22  1  6     0  0
 16 11  1  6     0  0
 24 23  2  0     0  0
 25 23  1  0     0  0
 16 23  1  1     0  0
 19 26  1  1     0  0
 26 27  1  0     0  0
 27 28  1  0     0  0
 27 29  2  0     0  0
 21 30  1  0     0  0
 30 31  1  1     0  0
 30 32  1  0     0  0
 32 33  1  0     0  0
 32 34  1  6     0  0
 21 35  1  1     0  0
 33 36  1  0     0  0
M  END
> <ID>
CHEBI:61818

> <NAME>
N-acetyl-alpha-neuraminyl-(2->6)-N-acetyl-alpha-D-galactosamine

> <DEFINITION>
An N-acetyl-α-neuraminyl-(2→6)-N-acetyl-D-galactosamine in which the carbon bearing the anomeric hydroxy group has α configuration.

> <STAR>
3

> <SYNONYM>
sialosyl-Tn saccharide; sialosyl-Tn antigen saccharide; NeuAc(alpha->6)GalNAc(alpha-OH); Neu5Acalpha2-6GalNAcalpha; Neu5Aca2-6GalNAca; alpha-Neup5Ac-(2->6)-alpha-D-GalpNAc; 2-(acetylamino)-6-O-{(6R)-5-(acetylamino)-3,5-dideoxy-6-[(1R,2R)-1,2,3-trihydroxypropyl]-beta-L-threo-hex-2-ulopyranonosyl}-2-deoxy-alpha-D-galactopyranose

> <IUPAC_NAME>
(5-acetamido-3,5-dideoxy-D-glycero-alpha-D-galacto-nonulopyranosylonic acid)-(2->6)-2-acetamido-2-deoxy-alpha-D-galactopyranose

> <FORMULA>
C19H32N2O14

> <MASS>
512.465

> <MONOISOTOPIC_MASS>
512.18535

> <CHARGE>
0

> <SMILES>
O[C@@H]1[C@@H]([C@H]([C@H]([C@H](O1)CO[C@@]2(C[C@@H]([C@H]([C@@](O2)([C@H](O)[C@@H](CO)O)[H])NC(C)=O)O)C(=O)O)O)O)NC(=O)C

> <INCHI>
InChI=1S/C19H32N2O14/c1-6(23)20-11-8(25)3-19(18(31)32,35-16(11)13(27)9(26)4-22)33-5-10-14(28)15(29)12(17(30)34-10)21-7(2)24/h8-17,22,25-30H,3-5H2,1-2H3,(H,20,23)(H,21,24)(H,31,32)/t8-,9+,10+,11+,12+,13+,14-,15+,16+,17-,19+/m0/s1

> <INCHIKEY>
CZOGCRVBCLRHQJ-WHWAGLCYSA-N

> <REAXYS_REGISTRY_NUMBER>
8815709

> <PUBMED_CITATION>
19443021; 25568069; 2800471; 28632300; 31537530

$$$$

Marvin  04111111312D          

 26 27  0  0  1  0            999 V2000
   19.9596   -7.9372    0.0000 O   0  0  0  0  0  0  0  0  0  0  0  0
   20.6742   -5.8747    0.0000 C   0  0  2  0  0  0  0  0  0  0  0  0
   20.6742   -6.6997    0.0000 C   0  0  1  0  0  0  0  0  0  0  0  0
   19.9597   -5.4622    0.0000 O   0  0  0  0  0  0  0  0  0  0  0  0
   19.9597   -7.1122    0.0000 C   0  0  2  0  0  0  0  0  0  0  0  0
   19.2453   -5.8747    0.0000 C   0  0  1  0  0  0  0  0  0  0  0  0
   19.2453   -6.6997    0.0000 C   0  0  2  0  0  0  0  0  0  0  0  0
   21.3887   -5.4622    0.0000 O   0  0  0  0  0  0  0  0  0  0  0  0
   21.3887   -7.1122    0.0000 N   0  0  0  0  0  0  0  0  0  0  0  0
   18.5308   -7.1122    0.0000 O   0  0  0  0  0  0  0  0  0  0  0  0
   18.5308   -5.4622    0.0000 C   0  0  0  0  0  0  0  0  0  0  0  0
   17.8164   -5.8748    0.0000 O   0  0  0  0  0  0  0  0  0  0  0  0
   22.1030   -6.6997    0.0000 C   0  0  0  0  0  0  0  0  0  0  0  0
   22.1030   -5.8747    0.0000 O   0  0  0  0  0  0  0  0  0  0  0  0
   22.8175   -7.1122    0.0000 C   0  0  0  0  0  0  0  0  0  0  0  0
   18.5305  -10.4122    0.0000 O   0  0  0  0  0  0  0  0  0  0  0  0
   19.2451   -8.3497    0.0000 C   0  0  1  0  0  0  0  0  0  0  0  0
   19.2451   -9.1747    0.0000 C   0  0  1  0  0  0  0  0  0  0  0  0
   18.5307   -7.9372    0.0000 O   0  0  0  0  0  0  0  0  0  0  0  0
   18.5307   -9.5872    0.0000 C   0  0  2  0  0  0  0  0  0  0  0  0
   17.8162   -8.3497    0.0000 C   0  0  1  0  0  0  0  0  0  0  0  0
   17.8162   -9.1747    0.0000 C   0  0  2  0  0  0  0  0  0  0  0  0
   19.9596   -9.5872    0.0000 O   0  0  0  0  0  0  0  0  0  0  0  0
   17.1017   -9.5872    0.0000 O   0  0  0  0  0  0  0  0  0  0  0  0
   17.1017   -7.9372    0.0000 C   0  0  0  0  0  0  0  0  0  0  0  0
   16.3873   -8.3498    0.0000 O   0  0  0  0  0  0  0  0  0  0  0  0
  2  3  1  0  0  0  0
  2  4  1  0  0  0  0
  3  5  1  0  0  0  0
  4  6  1  0  0  0  0
  5  7  1  0  0  0  0
  6  7  1  0  0  0  0
  2  8  1  6  0  0  0
  3  9  1  6  0  0  0
  5  1  1  1  0  0  0
  7 10  1  1  0  0  0
  6 11  1  1  0  0  0
 12 11  1  0  0  0  0
 14 13  2  0  0  0  0
  9 13  1  0  0  0  0
 15 13  1  0  0  0  0
 17 18  1  0  0  0  0
 17 19  1  0  0  0  0
 18 20  1  0  0  0  0
 19 21  1  0  0  0  0
 20 22  1  0  0  0  0
 21 22  1  0  0  0  0
 17  1  1  1  0  0  0
 18 23  1  6  0  0  0
 20 16  1  1  0  0  0
 22 24  1  1  0  0  0
 21 25  1  1  0  0  0
 26 25  1  0  0  0  0
M  END
> <ID>
CHEBI:61820

> <NAME>
beta-D-Gal-(1->3)-alpha-D-GalNAc

> <DEFINITION>
An amino disaccharide composed of D-galactose and N-acetyl-α-D-galactosaminyl residues in β-(1→3) linkage.

> <STAR>
3

> <SECONDARY_ID>
CHEBI:22784

> <SYNONYM>
T-disaccharide; T-antigen saccharide component; T-antigen saccharide; Galb1-3GalNAca; betaGal1->3alphaGalNAc; betaGal(1-3)alphaGalNAc; beta-D-Galp-(1->3-)-alpha-D-GalpNAc; beta-D-galactosyl-(1->3-)-N-acetyl-alpha-D-galactosamine; 2-acetamido-2-deoxy-3-O-beta-D-galactopyranosyl-alpha-D-galactopyranose

> <IUPAC_NAME>
beta-D-galactopyranosyl-(1->3)-2-acetamido-2-deoxy-alpha-D-galactopyranose

> <FORMULA>
C14H25NO11

> <MASS>
383.34840

> <MONOISOTOPIC_MASS>
383.14276

> <CHARGE>
0

> <SMILES>
CC(=O)N[C@H]1[C@@H](O)O[C@H](CO)[C@H](O)[C@@H]1O[C@@H]1O[C@H](CO)[C@H](O)[C@H](O)[C@H]1O

> <INCHI>
InChI=1S/C14H25NO11/c1-4(18)15-7-12(9(20)6(3-17)24-13(7)23)26-14-11(22)10(21)8(19)5(2-16)25-14/h5-14,16-17,19-23H,2-3H2,1H3,(H,15,18)/t5-,6-,7-,8+,9+,10+,11-,12-,13+,14+/m1/s1

> <INCHIKEY>
HMQPEDMEOBLSQB-IQKNWYLPSA-N

> <REAXYS_REGISTRY_NUMBER>
1299157

> <PUBMED_CITATION>
1609521; 19443021; 25568069; 2800471; 31537530; 7510273

$$$$

Marvin  04111112182D          

 37 39  0  0  1  0            999 V2000
    8.1488   -8.6675    0.0000 C   0  0  1  0  0  0  0  0  0  0  0  0
    8.1488   -9.4925    0.0000 C   0  0  1  0  0  0  0  0  0  0  0  0
    7.4343   -8.2550    0.0000 O   0  0  0  0  0  0  0  0  0  0  0  0
    7.4343   -9.9050    0.0000 C   0  0  2  0  0  0  0  0  0  0  0  0
    6.7198   -8.6675    0.0000 C   0  0  1  0  0  0  0  0  0  0  0  0
    6.7198   -9.4925    0.0000 C   0  0  2  0  0  0  0  0  0  0  0  0
    8.8633   -8.2550    0.0000 O   0  0  0  0  0  0  0  0  0  0  0  0
    8.8633   -9.9050    0.0000 O   0  0  0  0  0  0  0  0  0  0  0  0
    7.4343  -10.7300    0.0000 O   0  0  0  0  0  0  0  0  0  0  0  0
    6.0054   -9.9050    0.0000 O   0  0  0  0  0  0  0  0  0  0  0  0
    6.0054   -8.2550    0.0000 C   0  0  0  0  0  0  0  0  0  0  0  0
    5.2909   -8.6675    0.0000 O   0  0  0  0  0  0  0  0  0  0  0  0
   11.0067   -7.0175    0.0000 C   0  0  1  0  0  0  0  0  0  0  0  0
   11.0067   -7.8425    0.0000 C   0  0  1  0  0  0  0  0  0  0  0  0
   10.2922   -6.6050    0.0000 O   0  0  0  0  0  0  0  0  0  0  0  0
   10.2922   -8.2550    0.0000 C   0  0  2  0  0  0  0  0  0  0  0  0
    9.5778   -7.0175    0.0000 C   0  0  1  0  0  0  0  0  0  0  0  0
    9.5778   -7.8425    0.0000 C   0  0  1  0  0  0  0  0  0  0  0  0
   11.7212   -6.6050    0.0000 O   0  0  0  0  0  0  0  0  0  0  0  0
   11.7212   -8.2550    0.0000 O   0  0  0  0  0  0  0  0  0  0  0  0
   10.2922   -9.0800    0.0000 O   0  0  0  0  0  0  0  0  0  0  0  0
    8.8633   -6.6050    0.0000 C   0  0  0  0  0  0  0  0  0  0  0  0
    8.1488   -7.0175    0.0000 O   0  0  0  0  0  0  0  0  0  0  0  0
   14.5791   -6.6050    0.0000 C   0  0  1  0  0  0  0  0  0  0  0  0
   14.5791   -7.4300    0.0000 C   0  0  1  0  0  0  0  0  0  0  0  0
   13.8646   -6.1925    0.0000 O   0  0  0  0  0  0  0  0  0  0  0  0
   13.8646   -7.8425    0.0000 C   0  0  2  0  0  0  0  0  0  0  0  0
   13.1501   -6.6050    0.0000 C   0  0  1  0  0  0  0  0  0  0  0  0
   13.1501   -7.4300    0.0000 C   0  0  1  0  0  0  0  0  0  0  0  0
   15.2936   -6.1925    0.0000 O   0  0  0  0  0  0  0  0  0  0  0  0
   15.2936   -7.8425    0.0000 N   0  0  0  0  0  0  0  0  0  0  0  0
   13.8646   -8.6675    0.0000 O   0  0  0  0  0  0  0  0  0  0  0  0
   12.4357   -7.8425    0.0000 O   0  0  0  0  0  0  0  0  0  0  0  0
   12.4357   -6.1925    0.0000 C   0  0  0  0  0  0  0  0  0  0  0  0
   15.2936   -8.6675    0.0000 C   0  0  0  0  0  0  0  0  0  0  0  0
   16.0080   -9.0800    0.0000 C   0  0  0  0  0  0  0  0  0  0  0  0
   14.5791   -9.0800    0.0000 O   0  0  0  0  0  0  0  0  0  0  0  0
  1  2  1  0  0  0  0
  1  3  1  0  0  0  0
  2  4  1  0  0  0  0
  3  5  1  0  0  0  0
  4  6  1  0  0  0  0
  5  6  1  0  0  0  0
  1  7  1  1  0  0  0
  2  8  1  6  0  0  0
  4  9  1  1  0  0  0
  6 10  1  1  0  0  0
  5 11  1  1  0  0  0
 12 11  1  0  0  0  0
 13 14  1  0  0  0  0
 13 15  1  0  0  0  0
 14 16  1  0  0  0  0
 15 17  1  0  0  0  0
 16 18  1  0  0  0  0
 17 18  1  0  0  0  0
 13 19  1  1  0  0  0
 14 20  1  6  0  0  0
 16 21  1  1  0  0  0
 18  7  1  6  0  0  0
 17 22  1  1  0  0  0
 23 22  1  0  0  0  0
 24 25  1  0  0  0  0
 24 26  1  0  0  0  0
 25 27  1  0  0  0  0
 26 28  1  0  0  0  0
 27 29  1  0  0  0  0
 28 29  1  0  0  0  0
 24 30  1  1  0  0  0
 25 31  1  6  0  0  0
 27 32  1  1  0  0  0
 29 33  1  6  0  0  0
 28 34  1  1  0  0  0
 19 34  1  0  0  0  0
 31 35  1  0  0  0  0
 35 36  1  0  0  0  0
 35 37  2  0  0  0  0
M  END
> <ID>
CHEBI:61824

> <NAME>
beta-D-Galp-(1->4)-beta-D-Glcp-(1->6)-beta-D-GlcpNAc

> <DEFINITION>
A linear amino trisaccharide consisting of N-acetyl-β-D-glucosamine at the reducing end having a β-D-galactosyl-(1→4)-β-D-glucosyl group attached at the 6-position.

> <STAR>
3

> <IUPAC_NAME>
beta-D-galactopyranosyl-(1->4)-beta-D-glucopyranosyl-(1->6)-2-acetamido-2-deoxy-beta-D-glucopyranose

> <FORMULA>
C20H35NO16

> <MASS>
545.48900

> <MONOISOTOPIC_MASS>
545.19558

> <CHARGE>
0

> <SMILES>
CC(=O)N[C@H]1[C@H](O)O[C@H](CO[C@@H]2O[C@H](CO)[C@@H](O[C@@H]3O[C@H](CO)[C@H](O)[C@H](O)[C@H]3O)[C@H](O)[C@H]2O)[C@@H](O)[C@@H]1O

> <INCHI>
InChI=1S/C20H35NO16/c1-5(24)21-9-12(27)11(26)8(34-18(9)32)4-33-19-16(31)14(29)17(7(3-23)36-19)37-20-15(30)13(28)10(25)6(2-22)35-20/h6-20,22-23,25-32H,2-4H2,1H3,(H,21,24)/t6-,7-,8-,9-,10+,11-,12-,13+,14-,15-,16-,17-,18-,19-,20+/m1/s1

> <INCHIKEY>
YRSGVLKUPIDFEV-JYBNDVMISA-N

> <PUBMED_CITATION>
18678667

$$$$

Marvin  04111112372D          

 37 39  0  0  1  0            999 V2000
    7.1250  -16.8579    0.0000 C   0  0  1  0  0  0  0  0  0  0  0  0
    7.1250  -17.6829    0.0000 C   0  0  1  0  0  0  0  0  0  0  0  0
    6.4105  -16.4454    0.0000 O   0  0  0  0  0  0  0  0  0  0  0  0
    6.4105  -18.0954    0.0000 C   0  0  2  0  0  0  0  0  0  0  0  0
    5.6961  -16.8579    0.0000 C   0  0  1  0  0  0  0  0  0  0  0  0
    5.6961  -17.6829    0.0000 C   0  0  1  0  0  0  0  0  0  0  0  0
    7.8395  -16.4454    0.0000 O   0  0  0  0  0  0  0  0  0  0  0  0
    7.8395  -18.0954    0.0000 O   0  0  0  0  0  0  0  0  0  0  0  0
    6.4105  -18.9204    0.0000 O   0  0  0  0  0  0  0  0  0  0  0  0
    4.9816  -18.0954    0.0000 O   0  0  0  0  0  0  0  0  0  0  0  0
    4.9816  -16.4454    0.0000 C   0  0  0  0  0  0  0  0  0  0  0  0
    4.2671  -16.8579    0.0000 O   0  0  0  0  0  0  0  0  0  0  0  0
   10.6974  -16.4453    0.0000 C   0  0  1  0  0  0  0  0  0  0  0  0
   10.6974  -17.2703    0.0000 C   0  0  1  0  0  0  0  0  0  0  0  0
    9.9829  -16.0328    0.0000 O   0  0  0  0  0  0  0  0  0  0  0  0
    9.9829  -17.6828    0.0000 C   0  0  2  0  0  0  0  0  0  0  0  0
    9.2685  -16.4453    0.0000 C   0  0  1  0  0  0  0  0  0  0  0  0
    9.2685  -17.2703    0.0000 C   0  0  1  0  0  0  0  0  0  0  0  0
   11.4119  -16.0328    0.0000 O   0  0  0  0  0  0  0  0  0  0  0  0
   11.4119  -17.6829    0.0000 N   0  0  0  0  0  0  0  0  0  0  0  0
    9.9829  -18.5078    0.0000 O   0  0  0  0  0  0  0  0  0  0  0  0
    8.5539  -17.6828    0.0000 O   0  0  0  0  0  0  0  0  0  0  0  0
    8.5539  -16.0329    0.0000 C   0  0  0  0  0  0  0  0  0  0  0  0
   12.1264  -13.9703    0.0000 C   0  0  1  0  0  0  0  0  0  0  0  0
   12.1264  -14.7953    0.0000 C   0  0  1  0  0  0  0  0  0  0  0  0
   11.4119  -13.5578    0.0000 O   0  0  0  0  0  0  0  0  0  0  0  0
   11.4119  -15.2078    0.0000 C   0  0  2  0  0  0  0  0  0  0  0  0
   10.6975  -13.9703    0.0000 C   0  0  1  0  0  0  0  0  0  0  0  0
   10.6975  -14.7953    0.0000 C   0  0  2  0  0  0  0  0  0  0  0  0
   12.8408  -13.5578    0.0000 O   0  0  0  0  0  0  0  0  0  0  0  0
   12.8408  -15.2078    0.0000 O   0  0  0  0  0  0  0  0  0  0  0  0
    9.9829  -15.2078    0.0000 O   0  0  0  0  0  0  0  0  0  0  0  0
    9.9829  -13.5578    0.0000 C   0  0  0  0  0  0  0  0  0  0  0  0
    9.2685  -13.9703    0.0000 O   0  0  0  0  0  0  0  0  0  0  0  0
   11.4119  -18.5079    0.0000 C   0  0  0  0  0  0  0  0  0  0  0  0
   12.1263  -18.9204    0.0000 C   0  0  0  0  0  0  0  0  0  0  0  0
   10.6974  -18.9203    0.0000 O   0  0  0  0  0  0  0  0  0  0  0  0
  1  2  1  0  0  0  0
  1  3  1  0  0  0  0
  2  4  1  0  0  0  0
  3  5  1  0  0  0  0
  4  6  1  0  0  0  0
  5  6  1  0  0  0  0
  1  7  1  1  0  0  0
  2  8  1  6  0  0  0
  4  9  1  1  0  0  0
  6 10  1  6  0  0  0
  5 11  1  1  0  0  0
 12 11  1  0  0  0  0
 13 14  1  0  0  0  0
 13 15  1  0  0  0  0
 14 16  1  0  0  0  0
 15 17  1  0  0  0  0
 16 18  1  0  0  0  0
 17 18  1  0  0  0  0
 13 19  1  1  0  0  0
 14 20  1  6  0  0  0
 16 21  1  1  0  0  0
 18 22  1  6  0  0  0
 17 23  1  1  0  0  0
  7 23  1  0  0  0  0
 24 25  1  0  0  0  0
 24 26  1  0  0  0  0
 25 27  1  0  0  0  0
 26 28  1  0  0  0  0
 27 29  1  0  0  0  0
 28 29  1  0  0  0  0
 24 30  1  1  0  0  0
 25 31  1  6  0  0  0
 27 19  1  1  0  0  0
 29 32  1  1  0  0  0
 28 33  1  1  0  0  0
 34 33  1  0  0  0  0
 20 35  1  0  0  0  0
 35 36  1  0  0  0  0
 35 37  2  0  0  0  0
M  END
> <ID>
CHEBI:61826

> <NAME>
beta-D-Glcp-(1->6)-beta-D-GlcpNAc-(1->3)-beta-D-Galp

> <DEFINITION>
A linear amino trisaccharide having β-D-galactose at the reducing end with a β-D-glucosyl-(1→6)-N-acetyl-β-D-glucosaminyl moiety at the 3-position.

> <STAR>
3

> <IUPAC_NAME>
beta-D-glucopyranosyl-(1->6)-2-acetamido-2-deoxy-beta-D-glucopyranosyl-(1->3)-beta-D-galactopyranose

> <FORMULA>
C20H35NO16

> <MASS>
545.48900

> <MONOISOTOPIC_MASS>
545.19558

> <CHARGE>
0

> <SMILES>
CC(=O)N[C@@H]1[C@@H](O)[C@H](O)[C@@H](CO[C@@H]2O[C@H](CO)[C@@H](O)[C@H](O)[C@H]2O)O[C@H]1O[C@@H]1[C@@H](O)[C@H](O)O[C@H](CO)[C@@H]1O

> <INCHI>
InChI=1S/C20H35NO16/c1-5(24)21-9-13(28)11(26)8(4-33-20-15(30)14(29)10(25)6(2-22)35-20)36-19(9)37-17-12(27)7(3-23)34-18(32)16(17)31/h6-20,22-23,25-32H,2-4H2,1H3,(H,21,24)/t6-,7-,8-,9-,10-,11-,12+,13-,14+,15-,16-,17+,18-,19+,20-/m1/s1

> <INCHIKEY>
RCIUSINUWSXECE-DTUVRTRGSA-N

> <PUBMED_CITATION>
18678667

$$$$

Marvin  04111112452D          

 23 24  0  0  1  0            999 V2000
    9.9386   -8.8638    0.0000 C   0  0  2  0  0  0  0  0  0  0  0  0
    9.2241   -9.2763    0.0000 C   0  0  1  0  0  0  0  0  0  0  0  0
    9.9386   -8.0388    0.0000 O   0  0  0  0  0  0  0  0  0  0  0  0
    8.5096   -8.8637    0.0000 C   0  0  2  0  0  0  0  0  0  0  0  0
    9.2241   -7.6263    0.0000 C   0  0  1  0  0  0  0  0  0  0  0  0
    8.5097   -8.0387    0.0000 C   0  0  2  0  0  0  0  0  0  0  0  0
   10.6530   -9.2763    0.0000 O   0  0  0  0  0  0  0  0  0  0  0  0
    9.2241  -10.1013    0.0000 O   0  0  0  0  0  0  0  0  0  0  0  0
    7.7951   -9.2762    0.0000 O   0  0  0  0  0  0  0  0  0  0  0  0
    7.7952   -7.6262    0.0000 O   0  0  0  0  0  0  0  0  0  0  0  0
    9.2241   -6.8013    0.0000 C   0  0  0  0  0  0  0  0  0  0  0  0
    8.5097   -6.3887    0.0000 O   0  0  0  0  0  0  0  0  0  0  0  0
   13.5110   -9.2763    0.0000 C   0  0  1  0  0  0  0  0  0  0  0  0
   13.5110  -10.1013    0.0000 C   0  0  1  0  0  0  0  0  0  0  0  0
   12.7964   -8.8638    0.0000 O   0  0  0  0  0  0  0  0  0  0  0  0
   12.7964  -10.5138    0.0000 C   0  0  2  0  0  0  0  0  0  0  0  0
   12.0820   -9.2763    0.0000 C   0  0  1  0  0  0  0  0  0  0  0  0
   12.0820  -10.1013    0.0000 C   0  0  1  0  0  0  0  0  0  0  0  0
   14.2254   -8.8638    0.0000 O   0  0  0  0  0  0  0  0  0  0  0  0
   14.2254  -10.5138    0.0000 O   0  0  0  0  0  0  0  0  0  0  0  0
   12.7964  -11.3388    0.0000 O   0  0  0  0  0  0  0  0  0  0  0  0
   11.3675  -10.5138    0.0000 O   0  0  0  0  0  0  0  0  0  0  0  0
   11.3675   -8.8638    0.0000 C   0  0  0  0  0  0  0  0  0  0  0  0
  1  2  1  0  0  0  0
  1  3  1  0  0  0  0
  2  4  1  0  0  0  0
  3  5  1  0  0  0  0
  4  6  1  0  0  0  0
  5  6  1  0  0  0  0
  1  7  1  6  0  0  0
  2  8  1  6  0  0  0
  4  9  1  1  0  0  0
  6 10  1  1  0  0  0
  5 11  1  1  0  0  0
 12 11  1  0  0  0  0
 13 14  1  0  0  0  0
 13 15  1  0  0  0  0
 14 16  1  0  0  0  0
 15 17  1  0  0  0  0
 16 18  1  0  0  0  0
 17 18  1  0  0  0  0
 13 19  1  1  0  0  0
 14 20  1  6  0  0  0
 16 21  1  1  0  0  0
 18 22  1  6  0  0  0
 17 23  1  1  0  0  0
  7 23  1  0  0  0  0
M  END
> <ID>
CHEBI:61827

> <NAME>
beta-melibiose

> <DEFINITION>
A melibiose that has β-configuration at the anomeric hydroxy group.

> <STAR>
3

> <SYNONYM>
O(6)-alpha-D-galactopyranosyl-beta-D-glucopyranose; Galalpha1-6Glcbeta; Gala1-6Glcb; Gal-alpha1-6-Glc-beta; alpha-D-Galp-(1->6)-beta-D-Glcp

> <IUPAC_NAME>
alpha-D-galactopyranosyl-(1->6)-beta-D-glucopyranose; 6-O-alpha-D-galactopyranosyl-beta-D-glucopyranose

> <FORMULA>
C12H22O11

> <MASS>
342.29650

> <MONOISOTOPIC_MASS>
342.11621

> <CHARGE>
0

> <SMILES>
OC[C@H]1O[C@H](OC[C@H]2O[C@@H](O)[C@H](O)[C@@H](O)[C@@H]2O)[C@H](O)[C@@H](O)[C@H]1O

> <INCHI>
InChI=1S/C12H22O11/c13-1-3-5(14)8(17)10(19)12(23-3)21-2-4-6(15)7(16)9(18)11(20)22-4/h3-20H,1-2H2/t3-,4-,5+,6-,7+,8+,9-,10-,11-,12+/m1/s1

> <INCHIKEY>
DLRVVLDZNNYCBX-ZZFZYMBESA-N

> <REAXYS_REGISTRY_NUMBER>
90862

> <PUBMED_CITATION>
12626386; 19443021; 25568069; 31537530

$$$$

Marvin  04111113552D          

 32 35  0  0  1  0            999 V2000
    8.2150   -6.1265    0.0000 C   0  0  0  0  0  0  0  0  0  0  0  0
    7.4924   -6.5228    0.0000 C   0  0  0  0  0  0  0  0  0  0  0  0
    7.4924   -7.3620    0.0000 C   0  0  1  0  0  0  0  0  0  0  0  0
    8.2150   -7.7738    0.0000 C   0  0  0  0  0  0  0  0  0  0  0  0
    8.9143   -7.3620    0.0000 C   0  0  2  0  0  0  0  0  0  0  0  0
    9.6292   -7.7738    0.0000 C   0  0  0  0  0  0  0  0  0  0  0  0
   10.3596   -7.3620    0.0000 C   0  0  0  0  0  0  0  0  0  0  0  0
   10.3596   -6.5228    0.0000 C   0  0  0  0  0  0  0  0  0  0  0  0
    9.6292   -6.1265    0.0000 C   0  0  1  0  0  0  0  0  0  0  0  0
    8.9143   -6.5228    0.0000 C   0  0  1  0  0  0  0  0  0  0  0  0
    9.6292   -5.3185    0.0000 C   0  0  0  0  0  0  0  0  0  0  0  0
   10.3596   -4.8988    0.0000 C   0  0  0  0  0  0  0  0  0  0  0  0
   11.0589   -5.3185    0.0000 C   0  0  1  0  0  0  0  0  0  0  0  0
   11.0589   -6.1265    0.0000 C   0  0  0  0  0  0  0  0  0  0  0  0
   11.8436   -6.3829    0.0000 C   0  0  1  0  0  0  0  0  0  0  0  0
   12.3099   -5.7302    0.0000 C   0  0  0  0  0  0  0  0  0  0  0  0
   11.8436   -5.0620    0.0000 C   0  0  2  0  0  0  0  0  0  0  0  0
   11.0589   -4.4715    0.0000 C   0  0  0  0  0  0  0  0  0  0  0  0
    8.9143   -5.7147    0.0000 C   0  0  0  0  0  0  0  0  0  0  0  0
   11.8436   -4.2151    0.0000 C   0  0  2  0  0  0  0  0  0  0  0  0
   11.0900   -3.5693    0.0000 C   0  0  0  0  0  0  0  0  0  0  0  0
   12.5741   -3.7877    0.0000 C   0  0  0  0  0  0  0  0  0  0  0  0
   13.2812   -4.1918    0.0000 C   0  0  0  0  0  0  0  0  0  0  0  0
   13.9882   -3.7644    0.0000 C   0  0  0  0  0  0  0  0  0  0  0  0
   12.5663   -4.6579    0.0000 H   0  0  0  0  0  0  0  0  0  0  0  0
   14.6736   -4.1600    0.0000 C   0  0  0  0  0  0  0  0  0  0  0  0
   14.6736   -4.8485    0.0000 C   0  0  0  0  0  0  0  0  0  0  0  0
   15.3225   -3.7405    0.0000 C   0  0  0  0  0  0  0  0  0  0  0  0
    8.9122   -8.1407    0.0000 H   0  0  0  0  0  0  0  0  0  0  0  0
    6.7596   -7.7925    0.0000 O   0  0  0  0  0  0  0  0  0  0  0  0
   12.1013   -7.1673    0.0000 O   0  0  0  0  0  0  0  0  0  0  0  0
    9.6292   -6.9515    0.0000 H   0  0  0  0  0  0  0  0  0  0  0  0
 14 13  1  0  0  0  0
 17 13  1  0  0  0  0
 12 13  1  0  0  0  0
 13 18  1  1  0  0  0
  8 14  2  0  0  0  0
 15 14  1  0  0  0  0
 11  9  1  0  0  0  0
 10  9  1  0  0  0  0
  8  9  1  0  0  0  0
  7  8  1  0  0  0  0
  5 10  1  0  0  0  0
 10 19  1  1  0  0  0
  1 10  1  0  0  0  0
 16 17  1  0  0  0  0
 20 17  1  0  0  0  0
 17 25  1  6  0  0  0
 11 12  1  0  0  0  0
 16 15  1  0  0  0  0
  6  7  1  0  0  0  0
  4  5  1  0  0  0  0
  6  5  1  0  0  0  0
 22 20  1  0  0  0  0
 20 21  1  6  0  0  0
  2  1  1  0  0  0  0
 22 23  1  0  0  0  0
 24 23  1  0  0  0  0
  3  4  1  0  0  0  0
  3  2  1  0  0  0  0
 26 24  1  0  0  0  0
 27 26  1  0  0  0  0
 28 26  1  0  0  0  0
  5 29  1  6  0  0  0
  3 30  1  1  0  0  0
 15 31  1  1  0  0  0
  9 32  1  6  0  0  0
M  END
> <ID>
CHEBI:61828

> <NAME>
5alpha-cholest-8(14)-en-3beta,15beta-diol

> <DEFINITION>
A 3β-hydroxysteroid consisting of 3β-hydroxy-5α-cholest-8(14)-ene having an additional hydroxy group at the 15β-position.

> <STAR>
3

> <SYNONYM>
3beta,15beta-dihydroxy-5alpha-cholest-8(14)-ene; (3beta,5alpha,15beta)-cholest-8(14)-ene-3,15-diol

> <IUPAC_NAME>
5alpha-cholest-8(14)-en-3beta,15beta-diol

> <FORMULA>
C27H46O2

> <MASS>
402.65290

> <MONOISOTOPIC_MASS>
402.34978

> <CHARGE>
0

> <SMILES>
[H][C@@]12CCC3=C4[C@H](O)C[C@]([H])([C@H](C)CCCC(C)C)[C@@]4(C)CC[C@]3([H])[C@@]1(C)CC[C@H](O)C2

> <INCHI>
InChI=1S/C27H46O2/c1-17(2)7-6-8-18(3)23-16-24(29)25-21-10-9-19-15-20(28)11-13-26(19,4)22(21)12-14-27(23,25)5/h17-20,22-24,28-29H,6-16H2,1-5H3/t18-,19+,20+,22+,23-,24-,26+,27-/m1/s1

> <INCHIKEY>
KKIKOXDIBFWEEX-JLKOBJEXSA-N

> <REAXYS_REGISTRY_NUMBER>
9235821

> <PUBMED_CITATION>
16341241

$$$$

Marvin  04111114062D          

 32 35  0  0  1  0            999 V2000
    8.8707   -5.0938    0.0000 C   0  0  0  0  0  0  0  0  0  0  0  0
    8.1482   -5.4900    0.0000 C   0  0  0  0  0  0  0  0  0  0  0  0
    8.1482   -6.3293    0.0000 C   0  0  1  0  0  0  0  0  0  0  0  0
    8.8707   -6.7410    0.0000 C   0  0  0  0  0  0  0  0  0  0  0  0
    9.5700   -6.3293    0.0000 C   0  0  2  0  0  0  0  0  0  0  0  0
   10.2849   -6.7410    0.0000 C   0  0  0  0  0  0  0  0  0  0  0  0
   11.0153   -6.3293    0.0000 C   0  0  0  0  0  0  0  0  0  0  0  0
   11.0153   -5.4900    0.0000 C   0  0  0  0  0  0  0  0  0  0  0  0
   10.2849   -5.0938    0.0000 C   0  0  1  0  0  0  0  0  0  0  0  0
    9.5700   -5.4900    0.0000 C   0  0  1  0  0  0  0  0  0  0  0  0
   10.2849   -4.2858    0.0000 C   0  0  0  0  0  0  0  0  0  0  0  0
   11.0153   -3.8661    0.0000 C   0  0  0  0  0  0  0  0  0  0  0  0
   11.7146   -4.2858    0.0000 C   0  0  1  0  0  0  0  0  0  0  0  0
   11.7146   -5.0938    0.0000 C   0  0  0  0  0  0  0  0  0  0  0  0
   12.4992   -5.3502    0.0000 C   0  0  0  0  0  0  0  0  0  0  0  0
   12.9655   -4.6975    0.0000 C   0  0  0  0  0  0  0  0  0  0  0  0
   12.4992   -4.0293    0.0000 C   0  0  2  0  0  0  0  0  0  0  0  0
   11.7146   -3.4388    0.0000 C   0  0  0  0  0  0  0  0  0  0  0  0
    9.5700   -4.6820    0.0000 C   0  0  0  0  0  0  0  0  0  0  0  0
   12.4992   -3.1824    0.0000 C   0  0  2  0  0  0  0  0  0  0  0  0
   11.7457   -2.5367    0.0000 C   0  0  0  0  0  0  0  0  0  0  0  0
   13.2297   -2.7551    0.0000 C   0  0  0  0  0  0  0  0  0  0  0  0
   13.9368   -3.1591    0.0000 C   0  0  0  0  0  0  0  0  0  0  0  0
   14.6437   -2.7317    0.0000 C   0  0  0  0  0  0  0  0  0  0  0  0
   13.2219   -3.6252    0.0000 H   0  0  0  0  0  0  0  0  0  0  0  0
   15.3292   -3.1274    0.0000 C   0  0  0  0  0  0  0  0  0  0  0  0
   15.3292   -3.8158    0.0000 C   0  0  0  0  0  0  0  0  0  0  0  0
   15.9780   -2.7078    0.0000 C   0  0  0  0  0  0  0  0  0  0  0  0
    9.5679   -7.1079    0.0000 H   0  0  0  0  0  0  0  0  0  0  0  0
    7.4154   -6.7598    0.0000 O   0  0  0  0  0  0  0  0  0  0  0  0
   12.7569   -6.1345    0.0000 O   0  0  0  0  0  0  0  0  0  0  0  0
   10.2849   -5.9187    0.0000 H   0  0  0  0  0  0  0  0  0  0  0  0
 14 13  1  0  0  0  0
 17 13  1  0  0  0  0
 12 13  1  0  0  0  0
 13 18  1  1  0  0  0
  8 14  2  0  0  0  0
 15 14  1  0  0  0  0
 11  9  1  0  0  0  0
 10  9  1  0  0  0  0
  8  9  1  0  0  0  0
  7  8  1  0  0  0  0
  5 10  1  0  0  0  0
 10 19  1  1  0  0  0
  1 10  1  0  0  0  0
 16 17  1  0  0  0  0
 20 17  1  0  0  0  0
 17 25  1  6  0  0  0
 11 12  1  0  0  0  0
 16 15  1  0  0  0  0
  6  7  1  0  0  0  0
  4  5  1  0  0  0  0
  6  5  1  0  0  0  0
 22 20  1  0  0  0  0
 20 21  1  6  0  0  0
  2  1  1  0  0  0  0
 22 23  1  0  0  0  0
 24 23  1  0  0  0  0
  3  4  1  0  0  0  0
  3  2  1  0  0  0  0
 26 24  1  0  0  0  0
 27 26  1  0  0  0  0
 28 26  1  0  0  0  0
  5 29  1  6  0  0  0
  3 30  1  1  0  0  0
 15 31  2  0  0  0  0
  9 32  1  6  0  0  0
M  END
> <ID>
CHEBI:61829

> <NAME>
3beta-hydroxy-5alpha-cholest-8(14)-en-15-one

> <DEFINITION>
A 3β-hydroxysteroid consisting of 3β-hydroxy-5α-cholest-8(14)-ene having an additional oxo group at the 15-position.

> <STAR>
3

> <SYNONYM>
5alpha-cholest-8(14)-en-3-beta-ol-15-one; 15-oxo-5alpha-cholest-8(14)-en-3beta-ol; 15-ketocholestene; (3beta,5alpha)-3-hydroxycholest-8(14)-en-15-one

> <IUPAC_NAME>
3beta-hydroxy-5alpha-cholest-8(14)-en-15-one

> <INN>
colestolonum; colestolone; colestolona

> <FORMULA>
C27H44O2

> <MASS>
400.63710

> <MONOISOTOPIC_MASS>
400.33413

> <CHARGE>
0

> <SMILES>
[H][C@@]12CCC3=C4C(=O)C[C@]([H])([C@H](C)CCCC(C)C)[C@@]4(C)CC[C@]3([H])[C@@]1(C)CC[C@H](O)C2

> <INCHI>
InChI=1S/C27H44O2/c1-17(2)7-6-8-18(3)23-16-24(29)25-21-10-9-19-15-20(28)11-13-26(19,4)22(21)12-14-27(23,25)5/h17-20,22-23,28H,6-16H2,1-5H3/t18-,19+,20+,22+,23-,26+,27-/m1/s1

> <INCHIKEY>
LINVVMHRTUSXHL-GGVPDPBRSA-N

> <CAS_REGISTRY_NUMBER>
50673-97-7

> <REAXYS_REGISTRY_NUMBER>
3219975

> <CHEMIDPLUS>
50673-97-7

> <LIPID_MAPS_INSTANCE_ACCESSION>
LMST01010269

> <PUBMED_CITATION>
1542104; 16341241; 8033288; 9779586

$$$$

Marvin  04111114052D          

 48 51  0  0  1  0            999 V2000
   10.7034  -26.5889    0.0000 C   0  0  1  0  0  0  0  0  0  0  0  0
   10.7034  -27.4139    0.0000 C   0  0  1  0  0  0  0  0  0  0  0  0
    9.9888  -26.1764    0.0000 O   0  0  0  0  0  0  0  0  0  0  0  0
    9.9888  -27.8264    0.0000 C   0  0  2  0  0  0  0  0  0  0  0  0
    9.2744  -26.5889    0.0000 C   0  0  1  0  0  0  0  0  0  0  0  0
    9.2744  -27.4139    0.0000 C   0  0  1  0  0  0  0  0  0  0  0  0
   11.4178  -26.1764    0.0000 O   0  0  0  0  0  0  0  0  0  0  0  0
   11.4178  -27.8264    0.0000 O   0  0  0  0  0  0  0  0  0  0  0  0
    9.9888  -28.6514    0.0000 O   0  0  0  0  0  0  0  0  0  0  0  0
    8.5599  -27.8264    0.0000 O   0  0  0  0  0  0  0  0  0  0  0  0
    8.5599  -26.1764    0.0000 C   0  0  0  0  0  0  0  0  0  0  0  0
    7.8454  -26.5889    0.0000 O   0  0  0  0  0  0  0  0  0  0  0  0
    7.8454  -28.2389    0.0000 C   0  0  1  0  0  0  0  0  0  0  0  0
    7.8454  -29.0639    0.0000 C   0  0  1  0  0  0  0  0  0  0  0  0
    7.1309  -27.8264    0.0000 O   0  0  0  0  0  0  0  0  0  0  0  0
    7.1309  -29.4764    0.0000 C   0  0  2  0  0  0  0  0  0  0  0  0
    6.4165  -28.2389    0.0000 C   0  0  1  0  0  0  0  0  0  0  0  0
    6.4165  -29.0639    0.0000 C   0  0  2  0  0  0  0  0  0  0  0  0
    8.5599  -29.4764    0.0000 O   0  0  0  0  0  0  0  0  0  0  0  0
    7.1309  -30.3014    0.0000 O   0  0  0  0  0  0  0  0  0  0  0  0
    5.7020  -29.4764    0.0000 O   0  0  0  0  0  0  0  0  0  0  0  0
    5.7020  -27.8264    0.0000 C   0  0  0  0  0  0  0  0  0  0  0  0
    4.9875  -28.2389    0.0000 O   0  0  0  0  0  0  0  0  0  0  0  0
   14.2757  -26.1763    0.0000 C   0  0  1  0  0  0  0  0  0  0  0  0
   14.2757  -27.0013    0.0000 C   0  0  1  0  0  0  0  0  0  0  0  0
   13.5612  -25.7638    0.0000 O   0  0  0  0  0  0  0  0  0  0  0  0
   13.5612  -27.4138    0.0000 C   0  0  2  0  0  0  0  0  0  0  0  0
   12.8467  -26.1763    0.0000 C   0  0  1  0  0  0  0  0  0  0  0  0
   12.8467  -27.0013    0.0000 C   0  0  1  0  0  0  0  0  0  0  0  0
   14.9902  -25.7638    0.0000 O   0  0  0  0  0  0  0  0  0  0  0  0
   14.9902  -27.4139    0.0000 N   0  0  0  0  0  0  0  0  0  0  0  0
   13.5612  -28.2388    0.0000 O   0  0  0  0  0  0  0  0  0  0  0  0
   12.1323  -27.4138    0.0000 O   0  0  0  0  0  0  0  0  0  0  0  0
   12.1323  -25.7638    0.0000 C   0  0  0  0  0  0  0  0  0  0  0  0
   15.7047  -23.7013    0.0000 C   0  0  1  0  0  0  0  0  0  0  0  0
   15.7047  -24.5263    0.0000 C   0  0  1  0  0  0  0  0  0  0  0  0
   14.9902  -23.2888    0.0000 O   0  0  0  0  0  0  0  0  0  0  0  0
   14.9902  -24.9388    0.0000 C   0  0  2  0  0  0  0  0  0  0  0  0
   14.2757  -23.7013    0.0000 C   0  0  1  0  0  0  0  0  0  0  0  0
   14.2757  -24.5263    0.0000 C   0  0  2  0  0  0  0  0  0  0  0  0
   16.4192  -23.2888    0.0000 O   0  0  0  0  0  0  0  0  0  0  0  0
   16.4192  -24.9388    0.0000 O   0  0  0  0  0  0  0  0  0  0  0  0
   13.5613  -24.9388    0.0000 O   0  0  0  0  0  0  0  0  0  0  0  0
   13.5613  -23.2888    0.0000 C   0  0  0  0  0  0  0  0  0  0  0  0
   12.8468  -23.7013    0.0000 O   0  0  0  0  0  0  0  0  0  0  0  0
   14.9902  -28.2389    0.0000 C   0  0  0  0  0  0  0  0  0  0  0  0
   15.7047  -28.6514    0.0000 C   0  0  0  0  0  0  0  0  0  0  0  0
   14.2757  -28.6513    0.0000 O   0  0  0  0  0  0  0  0  0  0  0  0
  1  2  1  0  0  0  0
  1  3  1  0  0  0  0
  2  4  1  0  0  0  0
  3  5  1  0  0  0  0
  4  6  1  0  0  0  0
  5  6  1  0  0  0  0
  1  7  1  1  0  0  0
  2  8  1  6  0  0  0
  4  9  1  1  0  0  0
  6 10  1  6  0  0  0
  5 11  1  1  0  0  0
 12 11  1  0  0  0  0
 13 14  1  0  0  0  0
 13 15  1  0  0  0  0
 14 16  1  0  0  0  0
 15 17  1  0  0  0  0
 16 18  1  0  0  0  0
 17 18  1  0  0  0  0
 13 10  1  1  0  0  0
 14 19  1  6  0  0  0
 16 20  1  1  0  0  0
 18 21  1  1  0  0  0
 17 22  1  1  0  0  0
 23 22  1  0  0  0  0
 24 25  1  0  0  0  0
 24 26  1  0  0  0  0
 25 27  1  0  0  0  0
 26 28  1  0  0  0  0
 27 29  1  0  0  0  0
 28 29  1  0  0  0  0
 24 30  1  1  0  0  0
 25 31  1  6  0  0  0
 27 32  1  1  0  0  0
 29 33  1  6  0  0  0
 28 34  1  1  0  0  0
  7 34  1  0  0  0  0
 35 36  1  0  0  0  0
 35 37  1  0  0  0  0
 36 38  1  0  0  0  0
 37 39  1  0  0  0  0
 38 40  1  0  0  0  0
 39 40  1  0  0  0  0
 35 41  1  1  0  0  0
 36 42  1  6  0  0  0
 38 30  1  1  0  0  0
 40 43  1  1  0  0  0
 39 44  1  1  0  0  0
 45 44  1  0  0  0  0
 31 46  1  0  0  0  0
 46 47  1  0  0  0  0
 46 48  2  0  0  0  0
M  END
> <ID>
CHEBI:61831

> <NAME>
beta-D-Galp-(1->4)-beta-D-Glcp-(1->6)-beta-D-GlcpNAc-(1->3)-beta-D-Galp

> <DEFINITION>
An amino tetrasaccharide comprising galactose at the reducing end with a β-D-galactosyl-(1→4)-β-D-glucosyl-(1→6)-N-acetyl-β-D-glucosaminyl group attached at the 3-position.

> <STAR>
3

> <IUPAC_NAME>
beta-D-galactopyranosyl-(1->4)-beta-D-glucopyranosyl-(1->6)-2-acetamido-2-deoxy-beta-D-glucopyranosyl-(1->3)-beta-D-galactopyranose

> <FORMULA>
C26H45NO21

> <MASS>
707.62960

> <MONOISOTOPIC_MASS>
707.24841

> <CHARGE>
0

> <SMILES>
CC(=O)N[C@@H]1[C@@H](O)[C@H](O)[C@@H](CO[C@@H]2O[C@H](CO)[C@@H](O[C@@H]3O[C@H](CO)[C@H](O)[C@H](O)[C@H]3O)[C@H](O)[C@H]2O)O[C@H]1O[C@@H]1[C@@H](O)[C@H](O)O[C@H](CO)[C@@H]1O

> <INCHI>
InChI=1S/C26H45NO21/c1-6(31)27-11-15(35)13(33)10(46-24(11)48-22-14(34)8(3-29)43-23(41)20(22)40)5-42-25-19(39)17(37)21(9(4-30)45-25)47-26-18(38)16(36)12(32)7(2-28)44-26/h7-26,28-30,32-41H,2-5H2,1H3,(H,27,31)/t7-,8-,9-,10-,11-,12+,13-,14+,15-,16+,17-,18-,19-,20-,21-,22+,23-,24+,25-,26+/m1/s1

> <INCHIKEY>
NVPDZDMVOYAZBT-VQLNLQNLSA-N

> <PUBMED_CITATION>
18678667

$$$$

Marvin  04111114152D          

 37 39  0  0  1  0            999 V2000
    7.3576   -5.7601    0.0000 C   0  0  2  0  0  0  0  0  0  0  0  0
    7.3576   -6.5851    0.0000 C   0  0  1  0  0  0  0  0  0  0  0  0
    6.6430   -5.3476    0.0000 O   0  0  0  0  0  0  0  0  0  0  0  0
    6.6430   -6.9976    0.0000 C   0  0  2  0  0  0  0  0  0  0  0  0
    5.9286   -5.7601    0.0000 C   0  0  1  0  0  0  0  0  0  0  0  0
    5.9286   -6.5851    0.0000 C   0  0  2  0  0  0  0  0  0  0  0  0
    8.0720   -6.9976    0.0000 O   0  0  0  0  0  0  0  0  0  0  0  0
    6.6430   -7.8226    0.0000 O   0  0  0  0  0  0  0  0  0  0  0  0
    5.2141   -6.9976    0.0000 O   0  0  0  0  0  0  0  0  0  0  0  0
    5.2141   -5.3476    0.0000 C   0  0  0  0  0  0  0  0  0  0  0  0
    4.4997   -5.7601    0.0000 O   0  0  0  0  0  0  0  0  0  0  0  0
    8.0720   -5.3476    0.0000 O   0  0  0  0  0  0  0  0  0  0  0  0
   13.0734   -2.4601    0.0000 C   0  0  1  0  0  0  0  0  0  0  0  0
   13.0734   -3.2851    0.0000 C   0  0  1  0  0  0  0  0  0  0  0  0
   12.3589   -2.0476    0.0000 O   0  0  0  0  0  0  0  0  0  0  0  0
   12.3589   -3.6976    0.0000 C   0  0  2  0  0  0  0  0  0  0  0  0
   11.6444   -2.4601    0.0000 C   0  0  1  0  0  0  0  0  0  0  0  0
   11.6444   -3.2851    0.0000 C   0  0  1  0  0  0  0  0  0  0  0  0
   13.7879   -2.0476    0.0000 O   0  0  0  0  0  0  0  0  0  0  0  0
   13.7879   -3.6976    0.0000 N   0  0  0  0  0  0  0  0  0  0  0  0
   12.3589   -4.5226    0.0000 O   0  0  0  0  0  0  0  0  0  0  0  0
   10.9299   -3.6976    0.0000 O   0  0  0  0  0  0  0  0  0  0  0  0
   10.9299   -2.0476    0.0000 C   0  0  0  0  0  0  0  0  0  0  0  0
   10.2155   -2.4601    0.0000 O   0  0  0  0  0  0  0  0  0  0  0  0
   10.2155   -4.1101    0.0000 C   0  0  1  0  0  0  0  0  0  0  0  0
   10.2155   -4.9351    0.0000 C   0  0  1  0  0  0  0  0  0  0  0  0
    9.5010   -3.6976    0.0000 O   0  0  0  0  0  0  0  0  0  0  0  0
    9.5010   -5.3476    0.0000 C   0  0  2  0  0  0  0  0  0  0  0  0
    8.7866   -4.1101    0.0000 C   0  0  1  0  0  0  0  0  0  0  0  0
    8.7866   -4.9351    0.0000 C   0  0  2  0  0  0  0  0  0  0  0  0
   10.9299   -5.3476    0.0000 O   0  0  0  0  0  0  0  0  0  0  0  0
    9.5010   -6.1726    0.0000 O   0  0  0  0  0  0  0  0  0  0  0  0
    8.0720   -3.6976    0.0000 C   0  0  0  0  0  0  0  0  0  0  0  0
    7.3576   -4.1101    0.0000 O   0  0  0  0  0  0  0  0  0  0  0  0
   13.7879   -4.5226    0.0000 C   0  0  0  0  0  0  0  0  0  0  0  0
   14.5023   -4.9351    0.0000 O   0  0  0  0  0  0  0  0  0  0  0  0
   13.0734   -4.9351    0.0000 C   0  0  0  0  0  0  0  0  0  0  0  0
  1  2  1  0  0  0  0
  1  3  1  0  0  0  0
  2  4  1  0  0  0  0
  3  5  1  0  0  0  0
  4  6  1  0  0  0  0
  5  6  1  0  0  0  0
  2  7  1  6  0  0  0
  4  8  1  1  0  0  0
  6  9  1  1  0  0  0
  5 10  1  1  0  0  0
 11 10  1  0  0  0  0
  1 12  1  6  0  0  0
 13 14  1  0  0  0  0
 13 15  1  0  0  0  0
 14 16  1  0  0  0  0
 15 17  1  0  0  0  0
 16 18  1  0  0  0  0
 17 18  1  0  0  0  0
 13 19  1  1  0  0  0
 14 20  1  6  0  0  0
 16 21  1  1  0  0  0
 18 22  1  6  0  0  0
 17 23  1  1  0  0  0
 24 23  1  0  0  0  0
 25 26  1  0  0  0  0
 25 27  1  0  0  0  0
 26 28  1  0  0  0  0
 27 29  1  0  0  0  0
 28 30  1  0  0  0  0
 29 30  1  0  0  0  0
 25 22  1  1  0  0  0
 26 31  1  6  0  0  0
 28 32  1  1  0  0  0
 30 12  1  1  0  0  0
 29 33  1  1  0  0  0
 34 33  1  0  0  0  0
 36 35  2  0  0  0  0
 37 35  1  0  0  0  0
 20 35  1  0  0  0  0
M  END
> <ID>
CHEBI:61832

> <NAME>
alpha-D-Gal-(1->4)-beta-D-Gal-(1->4)-beta-D-GlcNAc

> <DEFINITION>
An α-D-Gal-(1→4)-β-D-Gal-(1→4)-D-GlcNAc which has β-configuration at the epimeric hydroxy group.

> <STAR>
3

> <SYNONYM>
P1-Tri; Galalpha1-4Galbeta1-4GlcNAcbeta; Galalpha(1->4)Galbeta(1->4)GlcNAcbeta; Gala1-4Galb1-4GlcNAcb; Gal-alpha1-4-Gal-beta1-4-GlcNAc-beta; Gal-alpha-(1->4)-Gal-beta-(1->4)-GlcNAc-beta; alpha-D-Galp-(1->4)-beta-D-Galp-(1->4)-beta-D-GlcpNAc; alpha-D-galactosyl-(1->4)-beta-D-galactosyl-(1->4)-N-acetyl-beta-D-glucosamine

> <IUPAC_NAME>
alpha-D-galactopyranosyl-(1->4)-beta-D-galactopyranosyl-(1->4)-2-acetamido-2-deoxy-beta-D-glucopyranose

> <FORMULA>
C20H35NO16

> <MASS>
545.48900

> <MONOISOTOPIC_MASS>
545.19558

> <CHARGE>
0

> <SMILES>
CC(=O)N[C@H]1[C@H](O)O[C@H](CO)[C@@H](O[C@@H]2O[C@H](CO)[C@H](O[C@H]3O[C@H](CO)[C@H](O)[C@H](O)[C@H]3O)[C@H](O)[C@H]2O)[C@@H]1O

> <INCHI>
InChI=1S/C20H35NO16/c1-5(25)21-9-11(27)16(7(3-23)33-18(9)32)36-20-15(31)13(29)17(8(4-24)35-20)37-19-14(30)12(28)10(26)6(2-22)34-19/h6-20,22-24,26-32H,2-4H2,1H3,(H,21,25)/t6-,7-,8-,9-,10+,11-,12+,13-,14-,15-,16-,17+,18-,19-,20+/m1/s1

> <INCHIKEY>
QOITYCLKNIWNMP-JEUPZEFZSA-N

> <REAXYS_REGISTRY_NUMBER>
8529700

> <PUBMED_CITATION>
12626386; 19443021; 25568069; 31537530

$$$$

Marvin  04111115502D          

 48 51  0  0  1  0            999 V2000
   10.8525  -19.5118    0.0000 C   0  0  1  0  0  0  0  0  0  0  0  0
   10.8525  -20.3368    0.0000 C   0  0  1  0  0  0  0  0  0  0  0  0
   10.1380  -19.0993    0.0000 O   0  0  0  0  0  0  0  0  0  0  0  0
   10.1380  -20.7493    0.0000 C   0  0  2  0  0  0  0  0  0  0  0  0
    9.4235  -19.5118    0.0000 C   0  0  1  0  0  0  0  0  0  0  0  0
    9.4235  -20.3368    0.0000 C   0  0  1  0  0  0  0  0  0  0  0  0
   11.5670  -19.0993    0.0000 O   0  0  0  0  0  0  0  0  0  0  0  0
   11.5670  -20.7493    0.0000 N   0  0  0  0  0  0  0  0  0  0  0  0
   10.1379  -21.5743    0.0000 O   0  0  0  0  0  0  0  0  0  0  0  0
    8.7091  -20.7493    0.0000 O   0  0  0  0  0  0  0  0  0  0  0  0
    8.7091  -19.0993    0.0000 C   0  0  0  0  0  0  0  0  0  0  0  0
    7.9945  -21.1618    0.0000 C   0  0  1  0  0  0  0  0  0  0  0  0
    7.9945  -21.9868    0.0000 C   0  0  1  0  0  0  0  0  0  0  0  0
    7.2801  -20.7493    0.0000 O   0  0  0  0  0  0  0  0  0  0  0  0
    7.2801  -22.3993    0.0000 C   0  0  2  0  0  0  0  0  0  0  0  0
    6.5656  -21.1618    0.0000 C   0  0  1  0  0  0  0  0  0  0  0  0
    6.5656  -21.9868    0.0000 C   0  0  2  0  0  0  0  0  0  0  0  0
    8.7091  -22.3993    0.0000 O   0  0  0  0  0  0  0  0  0  0  0  0
    7.2800  -23.2244    0.0000 O   0  0  0  0  0  0  0  0  0  0  0  0
    5.8511  -22.3993    0.0000 O   0  0  0  0  0  0  0  0  0  0  0  0
    5.8511  -20.7493    0.0000 C   0  0  0  0  0  0  0  0  0  0  0  0
    5.1367  -21.1618    0.0000 O   0  0  0  0  0  0  0  0  0  0  0  0
    8.7090  -18.2743    0.0000 O   0  0  0  0  0  0  0  0  0  0  0  0
   12.2815  -17.0368    0.0000 C   0  0  1  0  0  0  0  0  0  0  0  0
   12.2815  -17.8618    0.0000 C   0  0  1  0  0  0  0  0  0  0  0  0
   11.5670  -16.6243    0.0000 O   0  0  0  0  0  0  0  0  0  0  0  0
   11.5670  -18.2743    0.0000 C   0  0  2  0  0  0  0  0  0  0  0  0
   10.8525  -17.0368    0.0000 C   0  0  1  0  0  0  0  0  0  0  0  0
   10.8525  -17.8618    0.0000 C   0  0  2  0  0  0  0  0  0  0  0  0
   12.9960  -16.6243    0.0000 O   0  0  0  0  0  0  0  0  0  0  0  0
   12.9960  -18.2743    0.0000 O   0  0  0  0  0  0  0  0  0  0  0  0
   10.1381  -18.2743    0.0000 O   0  0  0  0  0  0  0  0  0  0  0  0
   10.1381  -16.6243    0.0000 C   0  0  0  0  0  0  0  0  0  0  0  0
    9.4236  -17.0368    0.0000 O   0  0  0  0  0  0  0  0  0  0  0  0
   11.5669  -21.5743    0.0000 C   0  0  0  0  0  0  0  0  0  0  0  0
   12.2814  -21.9869    0.0000 C   0  0  0  0  0  0  0  0  0  0  0  0
   10.8525  -21.9868    0.0000 O   0  0  0  0  0  0  0  0  0  0  0  0
    7.9945  -17.8618    0.0000 C   0  0  1  0  0  0  0  0  0  0  0  0
    7.2801  -18.2743    0.0000 C   0  0  1  0  0  0  0  0  0  0  0  0
    7.9945  -17.0368    0.0000 O   0  0  0  0  0  0  0  0  0  0  0  0
    6.5656  -17.8618    0.0000 C   0  0  2  0  0  0  0  0  0  0  0  0
    7.2801  -16.6243    0.0000 C   0  0  1  0  0  0  0  0  0  0  0  0
    6.5656  -17.0368    0.0000 C   0  0  1  0  0  0  0  0  0  0  0  0
    7.2801  -19.0993    0.0000 O   0  0  0  0  0  0  0  0  0  0  0  0
    5.8511  -18.2743    0.0000 O   0  0  0  0  0  0  0  0  0  0  0  0
    5.8511  -16.6243    0.0000 O   0  0  0  0  0  0  0  0  0  0  0  0
    7.2801  -15.7993    0.0000 C   0  0  0  0  0  0  0  0  0  0  0  0
    6.5657  -15.3868    0.0000 O   0  0  0  0  0  0  0  0  0  0  0  0
  1  2  1  0  0  0  0
  1  3  1  0  0  0  0
  2  4  1  0  0  0  0
  3  5  1  0  0  0  0
  4  6  1  0  0  0  0
  5  6  1  0  0  0  0
  1  7  1  1  0  0  0
  2  8  1  6  0  0  0
  4  9  1  1  0  0  0
  6 10  1  6  0  0  0
  5 11  1  1  0  0  0
 12 13  1  0  0  0  0
 12 14  1  0  0  0  0
 13 15  1  0  0  0  0
 14 16  1  0  0  0  0
 15 17  1  0  0  0  0
 16 17  1  0  0  0  0
 12 10  1  1  0  0  0
 13 18  1  6  0  0  0
 15 19  1  1  0  0  0
 17 20  1  1  0  0  0
 16 21  1  1  0  0  0
 22 21  1  0  0  0  0
 11 23  1  0  0  0  0
 24 25  1  0  0  0  0
 24 26  1  0  0  0  0
 25 27  1  0  0  0  0
 26 28  1  0  0  0  0
 27 29  1  0  0  0  0
 28 29  1  0  0  0  0
 24 30  1  1  0  0  0
 25 31  1  6  0  0  0
 27  7  1  1  0  0  0
 29 32  1  1  0  0  0
 28 33  1  1  0  0  0
 34 33  1  0  0  0  0
  8 35  1  0  0  0  0
 35 36  1  0  0  0  0
 35 37  2  0  0  0  0
 38 39  1  0  0  0  0
 38 40  1  0  0  0  0
 39 41  1  0  0  0  0
 40 42  1  0  0  0  0
 41 43  1  0  0  0  0
 42 43  1  0  0  0  0
 38 23  1  1  0  0  0
 39 44  1  6  0  0  0
 41 45  1  1  0  0  0
 43 46  1  6  0  0  0
 42 47  1  1  0  0  0
 47 48  1  0  0  0  0
M  END
> <ID>
CHEBI:61838

> <NAME>
beta-D-Galp-(1->4)-[beta-D-Glcp-(1->6)]-beta-D-GlcpNAc-(1->3)-beta-D-Galp

> <DEFINITION>
A branched amino tetrasaccharide comprising β-D-galactose at the reducing end with a β-D-galactosyl-(1→4)-[β-D-glucosyl-(1→6)]-N-acetyl-β-D-glucosaminyl moiety attached at the 3-position.

> <STAR>
3

> <IUPAC_NAME>
beta-D-galactopyranosyl-(1->4)-[beta-D-glucopyranosyl-(1->6)]-2-acetamido-2-deoxy-beta-D-glucopyranosyl-(1->3)-beta-D-galactopyranose

> <FORMULA>
C26H45NO21

> <MASS>
707.62960

> <MONOISOTOPIC_MASS>
707.24841

> <CHARGE>
0

> <SMILES>
CC(=O)N[C@@H]1[C@@H](O)[C@H](O[C@@H]2O[C@H](CO)[C@H](O)[C@H](O)[C@H]2O)[C@@H](CO[C@@H]2O[C@H](CO)[C@@H](O)[C@H](O)[C@H]2O)O[C@H]1O[C@@H]1[C@@H](O)[C@H](O)O[C@H](CO)[C@@H]1O

> <INCHI>
InChI=1S/C26H45NO21/c1-6(31)27-11-15(35)21(47-26-19(39)17(37)13(33)8(3-29)45-26)10(5-42-25-18(38)16(36)12(32)7(2-28)44-25)46-24(11)48-22-14(34)9(4-30)43-23(41)20(22)40/h7-26,28-30,32-41H,2-5H2,1H3,(H,27,31)/t7-,8-,9-,10-,11-,12-,13+,14+,15-,16+,17+,18-,19-,20-,21-,22+,23-,24+,25-,26+/m1/s1

> <INCHIKEY>
WRLMIFDRQWRGRV-CPRWSADRSA-N

> <PUBMED_CITATION>
18678667

$$$$

Marvin  04111115492D          

 34 37  0  0  1  0            999 V2000
   15.1319  -10.7022    0.0000 C   0  0  0  0  0  0  0  0  0  0  0  0
   14.4094  -11.0985    0.0000 C   0  0  0  0  0  0  0  0  0  0  0  0
   14.4094  -11.9377    0.0000 C   0  0  1  0  0  0  0  0  0  0  0  0
   15.1319  -12.3495    0.0000 C   0  0  0  0  0  0  0  0  0  0  0  0
   15.8313  -11.9377    0.0000 C   0  0  2  0  0  0  0  0  0  0  0  0
   16.5462  -12.3495    0.0000 C   0  0  0  0  0  0  0  0  0  0  0  0
   17.2765  -11.9377    0.0000 C   0  0  0  0  0  0  0  0  0  0  0  0
   17.2765  -11.0985    0.0000 C   0  0  2  0  0  0  0  0  0  0  0  0
   16.5462  -10.7022    0.0000 C   0  0  1  0  0  0  0  0  0  0  0  0
   15.8313  -11.0985    0.0000 C   0  0  1  0  0  0  0  0  0  0  0  0
   16.5462   -9.8942    0.0000 C   0  0  0  0  0  0  0  0  0  0  0  0
   17.2765   -9.4745    0.0000 C   0  0  0  0  0  0  0  0  0  0  0  0
   17.9759   -9.8942    0.0000 C   0  0  1  0  0  0  0  0  0  0  0  0
   17.9759  -10.7022    0.0000 C   0  0  1  0  0  0  0  0  0  0  0  0
   18.7605  -10.9586    0.0000 C   0  0  1  0  0  0  0  0  0  0  0  0
   19.2268  -10.3059    0.0000 C   0  0  0  0  0  0  0  0  0  0  0  0
   18.7605   -9.6377    0.0000 C   0  0  2  0  0  0  0  0  0  0  0  0
   17.9759   -9.0472    0.0000 C   0  0  0  0  0  0  0  0  0  0  0  0
   15.8313  -10.2904    0.0000 C   0  0  0  0  0  0  0  0  0  0  0  0
   18.7605   -8.7908    0.0000 C   0  0  2  0  0  0  0  0  0  0  0  0
   18.0070   -8.1451    0.0000 C   0  0  0  0  0  0  0  0  0  0  0  0
   19.4910   -8.3635    0.0000 C   0  0  0  0  0  0  0  0  0  0  0  0
   20.1981   -8.7675    0.0000 C   0  0  0  0  0  0  0  0  0  0  0  0
   20.9050   -8.3401    0.0000 C   0  0  0  0  0  0  0  0  0  0  0  0
   19.4832   -9.2336    0.0000 H   0  0  0  0  0  0  0  0  0  0  0  0
   21.5905   -8.7358    0.0000 C   0  0  0  0  0  0  0  0  0  0  0  0
   21.5905   -9.4242    0.0000 C   0  0  0  0  0  0  0  0  0  0  0  0
   22.2394   -8.3162    0.0000 C   0  0  0  0  0  0  0  0  0  0  0  0
   15.8291  -12.7164    0.0000 H   0  0  0  0  0  0  0  0  0  0  0  0
   13.6766  -12.3683    0.0000 O   0  0  0  0  0  0  0  0  0  0  0  0
   19.0182  -11.7429    0.0000 O   0  0  0  0  0  0  0  0  0  0  0  0
   16.5462  -11.5271    0.0000 H   0  0  0  0  0  0  0  0  0  0  0  0
   17.9759  -11.5272    0.0000 H   0  0  0  0  0  0  0  0  0  0  0  0
   17.2765  -10.2734    0.0000 H   0  0  0  0  0  0  0  0  0  0  0  0
 14 13  1  0  0  0  0
 17 13  1  0  0  0  0
 12 13  1  0  0  0  0
 13 18  1  1  0  0  0
  8 14  1  0  0  0  0
 15 14  1  0  0  0  0
 11  9  1  0  0  0  0
 10  9  1  0  0  0  0
  8  9  1  0  0  0  0
  7  8  1  0  0  0  0
  5 10  1  0  0  0  0
 10 19  1  1  0  0  0
  1 10  1  0  0  0  0
 16 17  1  0  0  0  0
 20 17  1  0  0  0  0
 17 25  1  6  0  0  0
 11 12  1  0  0  0  0
 16 15  1  0  0  0  0
  6  7  1  0  0  0  0
  4  5  1  0  0  0  0
  6  5  1  0  0  0  0
 22 20  1  0  0  0  0
 20 21  1  6  0  0  0
  2  1  1  0  0  0  0
 22 23  1  0  0  0  0
 24 23  1  0  0  0  0
  3  4  1  0  0  0  0
  3  2  1  0  0  0  0
 26 24  1  0  0  0  0
 27 26  1  0  0  0  0
 28 26  1  0  0  0  0
  5 29  1  6  0  0  0
  3 30  1  1  0  0  0
 15 31  1  1  0  0  0
  9 32  1  6  0  0  0
 14 33  1  6  0  0  0
  8 34  1  1  0  0  0
M  END
> <ID>
CHEBI:61839

> <NAME>
5alpha-cholestan-3beta,15beta-diol

> <DEFINITION>
A 3β-hydroxysteroid consisting of 3β-hydroxy-5α-cholestane having an additional hydroxy group at the 15β-position.

> <STAR>
3

> <SYNONYM>
(3beta,5alpha,15beta)-cholestane-3,15-diol

> <IUPAC_NAME>
5alpha-cholestan-3beta,15beta-diol

> <FORMULA>
C27H48O2

> <MASS>
404.66880

> <MONOISOTOPIC_MASS>
404.36543

> <CHARGE>
0

> <SMILES>
[H][C@@]12CC[C@]3([H])[C@]([H])(CC[C@]4(C)[C@]([H])(C[C@@H](O)[C@@]34[H])[C@H](C)CCCC(C)C)[C@@]1(C)CC[C@H](O)C2

> <INCHI>
InChI=1S/C27H48O2/c1-17(2)7-6-8-18(3)23-16-24(29)25-21-10-9-19-15-20(28)11-13-26(19,4)22(21)12-14-27(23,25)5/h17-25,28-29H,6-16H2,1-5H3/t18-,19+,20+,21-,22+,23-,24-,25-,26+,27-/m1/s1

> <INCHIKEY>
MSKYNEGIINKEKI-PRKDSDQMSA-N

> <PUBMED_CITATION>
16341241

$$$$

Marvin  04111116272D          

 48 51  0  0  1  0            999 V2000
   27.7103  -20.1876    0.0000 C   0  0  1  0  0  0  0  0  0  0  0  0
   27.7103  -21.0126    0.0000 C   0  0  1  0  0  0  0  0  0  0  0  0
   26.9957  -19.7751    0.0000 O   0  0  0  0  0  0  0  0  0  0  0  0
   26.9957  -21.4251    0.0000 C   0  0  2  0  0  0  0  0  0  0  0  0
   26.2813  -20.1876    0.0000 C   0  0  1  0  0  0  0  0  0  0  0  0
   26.2813  -21.0126    0.0000 C   0  0  1  0  0  0  0  0  0  0  0  0
   28.4247  -19.7751    0.0000 O   0  0  0  0  0  0  0  0  0  0  0  0
   28.4247  -21.4252    0.0000 N   0  0  0  0  0  0  0  0  0  0  0  0
   26.9957  -22.2501    0.0000 O   0  0  0  0  0  0  0  0  0  0  0  0
   25.5668  -21.4251    0.0000 O   0  0  0  0  0  0  0  0  0  0  0  0
   25.5668  -19.7752    0.0000 C   0  0  0  0  0  0  0  0  0  0  0  0
   28.4247  -22.2502    0.0000 C   0  0  0  0  0  0  0  0  0  0  0  0
   29.1392  -22.6627    0.0000 C   0  0  0  0  0  0  0  0  0  0  0  0
   27.7103  -22.6626    0.0000 O   0  0  0  0  0  0  0  0  0  0  0  0
   24.8523  -21.8377    0.0000 C   0  0  1  0  0  0  0  0  0  0  0  0
   24.8523  -22.6627    0.0000 C   0  0  1  0  0  0  0  0  0  0  0  0
   24.1379  -21.4252    0.0000 O   0  0  0  0  0  0  0  0  0  0  0  0
   24.1379  -23.0752    0.0000 C   0  0  2  0  0  0  0  0  0  0  0  0
   23.4234  -21.8377    0.0000 C   0  0  1  0  0  0  0  0  0  0  0  0
   23.4234  -22.6627    0.0000 C   0  0  2  0  0  0  0  0  0  0  0  0
   25.5668  -23.0752    0.0000 O   0  0  0  0  0  0  0  0  0  0  0  0
   24.1378  -23.9002    0.0000 O   0  0  0  0  0  0  0  0  0  0  0  0
   22.7090  -23.0751    0.0000 O   0  0  0  0  0  0  0  0  0  0  0  0
   22.7090  -21.4252    0.0000 C   0  0  0  0  0  0  0  0  0  0  0  0
   21.9944  -21.8377    0.0000 O   0  0  0  0  0  0  0  0  0  0  0  0
   25.5668  -18.9502    0.0000 O   0  0  0  0  0  0  0  0  0  0  0  0
   24.8523  -18.5376    0.0000 C   0  0  1  0  0  0  0  0  0  0  0  0
   24.1379  -18.9501    0.0000 C   0  0  1  0  0  0  0  0  0  0  0  0
   24.8523  -17.7126    0.0000 O   0  0  0  0  0  0  0  0  0  0  0  0
   23.4234  -18.5376    0.0000 C   0  0  2  0  0  0  0  0  0  0  0  0
   24.1379  -17.3001    0.0000 C   0  0  1  0  0  0  0  0  0  0  0  0
   23.4234  -17.7126    0.0000 C   0  0  1  0  0  0  0  0  0  0  0  0
   24.1378  -19.7751    0.0000 O   0  0  0  0  0  0  0  0  0  0  0  0
   22.7088  -18.9500    0.0000 O   0  0  0  0  0  0  0  0  0  0  0  0
   22.7088  -17.3001    0.0000 O   0  0  0  0  0  0  0  0  0  0  0  0
   24.1379  -16.4751    0.0000 C   0  0  0  0  0  0  0  0  0  0  0  0
   23.4234  -16.0626    0.0000 O   0  0  0  0  0  0  0  0  0  0  0  0
   21.9944  -16.8876    0.0000 C   0  0  1  0  0  0  0  0  0  0  0  0
   21.2799  -17.3000    0.0000 C   0  0  1  0  0  0  0  0  0  0  0  0
   21.9944  -16.0625    0.0000 O   0  0  0  0  0  0  0  0  0  0  0  0
   20.5653  -16.8874    0.0000 C   0  0  2  0  0  0  0  0  0  0  0  0
   21.2799  -15.6500    0.0000 C   0  0  1  0  0  0  0  0  0  0  0  0
   20.5653  -16.0625    0.0000 C   0  0  2  0  0  0  0  0  0  0  0  0
   21.2798  -18.1250    0.0000 O   0  0  0  0  0  0  0  0  0  0  0  0
   19.8508  -17.2999    0.0000 O   0  0  0  0  0  0  0  0  0  0  0  0
   19.8509  -15.6499    0.0000 O   0  0  0  0  0  0  0  0  0  0  0  0
   21.2799  -14.8250    0.0000 C   0  0  0  0  0  0  0  0  0  0  0  0
   20.5654  -14.4125    0.0000 O   0  0  0  0  0  0  0  0  0  0  0  0
  1  2  1  0  0  0  0
  1  3  1  0  0  0  0
  2  4  1  0  0  0  0
  3  5  1  0  0  0  0
  4  6  1  0  0  0  0
  5  6  1  0  0  0  0
  1  7  1  1  0  0  0
  2  8  1  6  0  0  0
  4  9  1  1  0  0  0
  6 10  1  6  0  0  0
  5 11  1  1  0  0  0
  8 12  1  0  0  0  0
 12 13  1  0  0  0  0
 12 14  2  0  0  0  0
 15 16  1  0  0  0  0
 15 17  1  0  0  0  0
 16 18  1  0  0  0  0
 17 19  1  0  0  0  0
 18 20  1  0  0  0  0
 19 20  1  0  0  0  0
 15 10  1  1  0  0  0
 16 21  1  6  0  0  0
 18 22  1  1  0  0  0
 20 23  1  1  0  0  0
 19 24  1  1  0  0  0
 25 24  1  0  0  0  0
 11 26  1  0  0  0  0
 27 28  1  0  0  0  0
 27 29  1  0  0  0  0
 28 30  1  0  0  0  0
 29 31  1  0  0  0  0
 30 32  1  0  0  0  0
 31 32  1  0  0  0  0
 27 26  1  1  0  0  0
 28 33  1  6  0  0  0
 30 34  1  1  0  0  0
 32 35  1  6  0  0  0
 31 36  1  1  0  0  0
 37 36  1  0  0  0  0
 38 39  1  0  0  0  0
 38 40  1  0  0  0  0
 39 41  1  0  0  0  0
 40 42  1  0  0  0  0
 41 43  1  0  0  0  0
 42 43  1  0  0  0  0
 38 35  1  1  0  0  0
 39 44  1  6  0  0  0
 41 45  1  1  0  0  0
 43 46  1  1  0  0  0
 42 47  1  1  0  0  0
 48 47  1  0  0  0  0
M  END
> <ID>
CHEBI:61841

> <NAME>
beta-D-Galp-(1->4)-[beta-D-Galp-(1->4)-beta-D-Glcp-(1->6)]-beta-D-GlcpNAc

> <DEFINITION>
A branched amino tetrasaccharide comprising N-acetyl-β-D-glucosamine at the reducing end with a β-D-galactosyl group attached at the 4-position and a β-D-galactosyl-(1→4)-β-D-glucosyl moiety at the 6-position.

> <STAR>
3

> <SYNONYM>
Galbeta1-4Glcbeta1-6(Galbeta1-4)GlcNAcbeta; Galbeta1-4(Galbeta1-4Glcbeta1-6)GlcNAcbeta; beta-D-Galp-(1->4)-beta-D-Glcp-(1->6)-[beta-D-Galp-(1->4)]-beta-D-GlcpNAc; beta-D-galactosyl-(1->4)-beta-D-glucosyl-(1->6)-[beta-D-galactosyl-(1->4)]-N-acetyl-beta-D-glucosamine; beta-D-galactosyl-(1->4)-[beta-D-galactosyl-(1->4)-beta-D-glucosyl-(1->6)]-N-acetyl-beta-D-glucosamine; beta-D-Gal-(1->4)-beta-D-Glc-(1->6)-[beta-D-Gal-(1->4)]-beta-D-GlcNAc; beta-D-Gal-(1->4)-[beta-D-Gal-(1->4)-beta-D-Glc-(1->6)]-beta-D-GlcNAc

> <IUPAC_NAME>
beta-D-galactopyranosyl-(1->4)-[beta-D-galactopyranosyl-(1->4)-beta-D-glucopyranosyl-(1->6)]-2-acetamido-2-deoxy-beta-D-glucopyranose

> <FORMULA>
C26H45NO21

> <MASS>
707.62960

> <MONOISOTOPIC_MASS>
707.24841

> <CHARGE>
0

> <SMILES>
CC(=O)N[C@H]1[C@H](O)O[C@H](CO[C@@H]2O[C@H](CO)[C@@H](O[C@@H]3O[C@H](CO)[C@H](O)[C@H](O)[C@H]3O)[C@H](O)[C@H]2O)[C@@H](O[C@@H]2O[C@H](CO)[C@H](O)[C@H](O)[C@H]2O)[C@@H]1O

> <INCHI>
InChI=1S/C26H45NO21/c1-6(31)27-11-14(34)22(48-26-19(39)16(36)13(33)8(3-29)45-26)10(43-23(11)41)5-42-24-20(40)17(37)21(9(4-30)46-24)47-25-18(38)15(35)12(32)7(2-28)44-25/h7-26,28-30,32-41H,2-5H2,1H3,(H,27,31)/t7-,8-,9-,10-,11-,12+,13+,14-,15+,16+,17-,18-,19-,20-,21-,22-,23-,24-,25+,26+/m1/s1

> <INCHIKEY>
NKDXVGUGPOTQDO-IYQBHQFISA-N

> <PUBMED_CITATION>
18678667; 30788740

$$$$

Marvin  04111116492D          

 48 51  0  0  1  0            999 V2000
   12.0154   -9.4030    0.0000 C   0  0  1  0  0  0  0  0  0  0  0  0
   12.0154  -10.2280    0.0000 C   0  0  1  0  0  0  0  0  0  0  0  0
   11.3009   -8.9905    0.0000 O   0  0  0  0  0  0  0  0  0  0  0  0
   11.3009  -10.6405    0.0000 C   0  0  2  0  0  0  0  0  0  0  0  0
   10.5864   -9.4030    0.0000 C   0  0  1  0  0  0  0  0  0  0  0  0
   10.5864  -10.2280    0.0000 C   0  0  1  0  0  0  0  0  0  0  0  0
   12.7299   -8.9905    0.0000 O   0  0  0  0  0  0  0  0  0  0  0  0
   12.7299  -10.6405    0.0000 N   0  0  0  0  0  0  0  0  0  0  0  0
   11.3009  -11.4655    0.0000 O   0  0  0  0  0  0  0  0  0  0  0  0
    9.8720  -10.6405    0.0000 O   0  0  0  0  0  0  0  0  0  0  0  0
    9.8720   -8.9905    0.0000 C   0  0  0  0  0  0  0  0  0  0  0  0
    9.1575   -9.4030    0.0000 O   0  0  0  0  0  0  0  0  0  0  0  0
   12.7299  -11.4655    0.0000 C   0  0  0  0  0  0  0  0  0  0  0  0
   13.4443  -11.8780    0.0000 C   0  0  0  0  0  0  0  0  0  0  0  0
   12.0153  -11.8780    0.0000 O   0  0  0  0  0  0  0  0  0  0  0  0
    9.1575  -11.0530    0.0000 C   0  0  1  0  0  0  0  0  0  0  0  0
    9.1575  -11.8780    0.0000 C   0  0  1  0  0  0  0  0  0  0  0  0
    8.4430  -10.6405    0.0000 O   0  0  0  0  0  0  0  0  0  0  0  0
    8.4430  -12.2905    0.0000 C   0  0  2  0  0  0  0  0  0  0  0  0
    7.7285  -11.0530    0.0000 C   0  0  1  0  0  0  0  0  0  0  0  0
    7.7285  -11.8780    0.0000 C   0  0  2  0  0  0  0  0  0  0  0  0
    9.8720  -12.2905    0.0000 O   0  0  0  0  0  0  0  0  0  0  0  0
    8.4430  -13.1155    0.0000 O   0  0  0  0  0  0  0  0  0  0  0  0
    7.0141  -12.2905    0.0000 O   0  0  0  0  0  0  0  0  0  0  0  0
    7.0141  -10.6405    0.0000 C   0  0  0  0  0  0  0  0  0  0  0  0
    6.2996  -11.0530    0.0000 O   0  0  0  0  0  0  0  0  0  0  0  0
   13.4444   -6.9280    0.0000 C   0  0  1  0  0  0  0  0  0  0  0  0
   13.4444   -7.7530    0.0000 C   0  0  1  0  0  0  0  0  0  0  0  0
   12.7299   -6.5155    0.0000 O   0  0  0  0  0  0  0  0  0  0  0  0
   12.7299   -8.1655    0.0000 C   0  0  2  0  0  0  0  0  0  0  0  0
   12.0154   -6.9280    0.0000 C   0  0  1  0  0  0  0  0  0  0  0  0
   12.0154   -7.7530    0.0000 C   0  0  2  0  0  0  0  0  0  0  0  0
   14.1589   -6.5155    0.0000 O   0  0  0  0  0  0  0  0  0  0  0  0
   14.1589   -8.1655    0.0000 O   0  0  0  0  0  0  0  0  0  0  0  0
   11.3009   -8.1655    0.0000 O   0  0  0  0  0  0  0  0  0  0  0  0
   11.3009   -6.5155    0.0000 C   0  0  0  0  0  0  0  0  0  0  0  0
   10.5865   -6.9280    0.0000 O   0  0  0  0  0  0  0  0  0  0  0  0
   16.3023   -5.2780    0.0000 C   0  0  1  0  0  0  0  0  0  0  0  0
   16.3023   -6.1030    0.0000 C   0  0  1  0  0  0  0  0  0  0  0  0
   15.5878   -4.8655    0.0000 O   0  0  0  0  0  0  0  0  0  0  0  0
   15.5878   -6.5155    0.0000 C   0  0  2  0  0  0  0  0  0  0  0  0
   14.8733   -5.2780    0.0000 C   0  0  1  0  0  0  0  0  0  0  0  0
   14.8733   -6.1030    0.0000 C   0  0  1  0  0  0  0  0  0  0  0  0
   17.0168   -4.8655    0.0000 O   0  0  0  0  0  0  0  0  0  0  0  0
   17.0168   -6.5155    0.0000 O   0  0  0  0  0  0  0  0  0  0  0  0
   15.5878   -7.3405    0.0000 O   0  0  0  0  0  0  0  0  0  0  0  0
   14.1589   -4.8655    0.0000 C   0  0  0  0  0  0  0  0  0  0  0  0
   13.4444   -5.2780    0.0000 O   0  0  0  0  0  0  0  0  0  0  0  0
  1  2  1  0  0  0  0
  1  3  1  0  0  0  0
  2  4  1  0  0  0  0
  3  5  1  0  0  0  0
  4  6  1  0  0  0  0
  5  6  1  0  0  0  0
  1  7  1  1  0  0  0
  2  8  1  6  0  0  0
  4  9  1  1  0  0  0
  6 10  1  6  0  0  0
  5 11  1  1  0  0  0
 12 11  1  0  0  0  0
  8 13  1  0  0  0  0
 13 14  1  0  0  0  0
 13 15  2  0  0  0  0
 16 17  1  0  0  0  0
 16 18  1  0  0  0  0
 17 19  1  0  0  0  0
 18 20  1  0  0  0  0
 19 21  1  0  0  0  0
 20 21  1  0  0  0  0
 16 10  1  1  0  0  0
 17 22  1  6  0  0  0
 19 23  1  1  0  0  0
 21 24  1  1  0  0  0
 20 25  1  1  0  0  0
 26 25  1  0  0  0  0
 27 28  1  0  0  0  0
 27 29  1  0  0  0  0
 28 30  1  0  0  0  0
 29 31  1  0  0  0  0
 30 32  1  0  0  0  0
 31 32  1  0  0  0  0
 27 33  1  1  0  0  0
 28 34  1  6  0  0  0
 30  7  1  1  0  0  0
 32 35  1  1  0  0  0
 31 36  1  1  0  0  0
 37 36  1  0  0  0  0
 38 39  1  0  0  0  0
 38 40  1  0  0  0  0
 39 41  1  0  0  0  0
 40 42  1  0  0  0  0
 41 43  1  0  0  0  0
 42 43  1  0  0  0  0
 38 44  1  1  0  0  0
 39 45  1  6  0  0  0
 41 46  1  1  0  0  0
 43 33  1  6  0  0  0
 42 47  1  1  0  0  0
 48 47  1  0  0  0  0
M  END
> <ID>
CHEBI:61844

> <NAME>
beta-D-Galp-(1->4)-beta-D-GlcNAcp-(1->3)-beta-D-Galp-(1->4)-beta-D-Glcp

> <DEFINITION>
The β anomer of β-D-Gal-(1→4)-β-D-GlcNAc-(1→3)-β-D-Gal-(1→4)-D-Glc.

> <STAR>
3

> <SYNONYM>
Galbeta1-4GlcNAcbeta1-3Galbeta1-4Glcbeta; Galb1-4GlcNAcb1-3Galb1-4Glcb; betaGal(1->4)betaGlcNAc(1->3)betaGal(1->4)betaGlc; beta-D-galactosyl-(1->4)-N-acetyl-beta-D-glucosaminyl-(1->3)-beta-D-galactosyl-(1->4)-beta-D-glucose; beta-D-Gal-(1->4)-beta-D-GlcNAc-(1->3)-beta-D-Gal-(1->4)-beta-D-Glc

> <IUPAC_NAME>
beta-D-galactopyranosyl-(1->4)-2-acetamido-2-deoxy-beta-D-glucopyranosyl-(1->3)-beta-D-galactopyranosyl-(1->4)-beta-D-glucopyranose

> <FORMULA>
C26H45NO21

> <MASS>
707.62960

> <MONOISOTOPIC_MASS>
707.24841

> <CHARGE>
0

> <SMILES>
CC(=O)N[C@@H]1[C@@H](O)[C@H](O[C@@H]2O[C@H](CO)[C@H](O)[C@H](O)[C@H]2O)[C@@H](CO)O[C@H]1O[C@H]1[C@@H](O)[C@@H](CO)O[C@@H](O[C@H]2[C@H](O)[C@@H](O)[C@H](O)O[C@@H]2CO)[C@@H]1O

> <INCHI>
InChI=1S/C26H45NO21/c1-6(32)27-11-14(35)20(46-25-18(39)15(36)12(33)7(2-28)43-25)10(5-31)45-24(11)48-22-13(34)8(3-29)44-26(19(22)40)47-21-9(4-30)42-23(41)17(38)16(21)37/h7-26,28-31,33-41H,2-5H2,1H3,(H,27,32)/t7-,8-,9-,10-,11-,12+,13+,14-,15+,16-,17-,18-,19-,20-,21-,22+,23-,24+,25+,26+/m1/s1

> <INCHIKEY>
IEQCXFNWPAHHQR-OEMKBTDYSA-N

> <REAXYS_REGISTRY_NUMBER>
5470851

> <PUBMED_CITATION>
18678667; 19443021; 25568069; 31537530; 7521740

$$$$

Marvin  04121113332D          

 33 35  0  0  1  0            999 V2000
   12.5843   -5.0523    0.0000 C   0  0  2  0  0  0  0  0  0  0  0  0
   12.5843   -5.8773    0.0000 C   0  0  1  0  0  0  0  0  0  0  0  0
   11.8698   -4.6398    0.0000 O   0  0  0  0  0  0  0  0  0  0  0  0
   11.8698   -6.2898    0.0000 C   0  0  1  0  0  0  0  0  0  0  0  0
   11.1553   -5.0523    0.0000 C   0  0  2  0  0  0  0  0  0  0  0  0
   11.1553   -5.8773    0.0000 C   0  0  2  0  0  0  0  0  0  0  0  0
   13.2987   -4.6398    0.0000 O   0  0  0  0  0  0  0  0  0  0  0  0
   13.2987   -6.2898    0.0000 O   0  0  0  0  0  0  0  0  0  0  0  0
   11.8697   -7.1149    0.0000 O   0  0  0  0  0  0  0  0  0  0  0  0
   10.4409   -6.2898    0.0000 O   0  0  0  0  0  0  0  0  0  0  0  0
   10.4409   -4.6398    0.0000 C   0  0  0  0  0  0  0  0  0  0  0  0
   15.4422   -3.4023    0.0000 C   0  0  1  0  0  0  0  0  0  0  0  0
   15.4422   -4.2273    0.0000 C   0  0  1  0  0  0  0  0  0  0  0  0
   14.7277   -2.9898    0.0000 O   0  0  0  0  0  0  0  0  0  0  0  0
   14.7277   -4.6398    0.0000 C   0  0  2  0  0  0  0  0  0  0  0  0
   14.0132   -3.4023    0.0000 C   0  0  1  0  0  0  0  0  0  0  0  0
   14.0132   -4.2273    0.0000 C   0  0  1  0  0  0  0  0  0  0  0  0
   16.1567   -2.9898    0.0000 O   0  0  0  0  0  0  0  0  0  0  0  0
   16.1567   -4.6398    0.0000 O   0  0  0  0  0  0  0  0  0  0  0  0
   14.7277   -5.4648    0.0000 O   0  0  0  0  0  0  0  0  0  0  0  0
   13.2987   -2.9898    0.0000 C   0  0  0  0  0  0  0  0  0  0  0  0
   12.5843   -3.4023    0.0000 O   0  0  0  0  0  0  0  0  0  0  0  0
   18.3002   -1.7523    0.0000 C   0  0  1  0  0  0  0  0  0  0  0  0
   18.3002   -2.5773    0.0000 C   0  0  1  0  0  0  0  0  0  0  0  0
   17.5856   -1.3398    0.0000 O   0  0  0  0  0  0  0  0  0  0  0  0
   17.5856   -2.9898    0.0000 C   0  0  2  0  0  0  0  0  0  0  0  0
   16.8712   -1.7523    0.0000 C   0  0  1  0  0  0  0  0  0  0  0  0
   16.8712   -2.5773    0.0000 C   0  0  2  0  0  0  0  0  0  0  0  0
   19.0146   -1.3398    0.0000 O   0  0  0  0  0  0  0  0  0  0  0  0
   19.0146   -2.9898    0.0000 O   0  0  0  0  0  0  0  0  0  0  0  0
   17.5856   -3.8148    0.0000 O   0  0  0  0  0  0  0  0  0  0  0  0
   16.1567   -1.3398    0.0000 C   0  0  0  0  0  0  0  0  0  0  0  0
   15.4422   -1.7523    0.0000 O   0  0  0  0  0  0  0  0  0  0  0  0
  1  2  1  0  0  0  0
  1  3  1  0  0  0  0
  2  4  1  0  0  0  0
  3  5  1  0  0  0  0
  4  6  1  0  0  0  0
  5  6  1  0  0  0  0
  1  7  1  6  0  0  0
  2  8  1  6  0  0  0
  4  9  1  6  0  0  0
  6 10  1  1  0  0  0
  5 11  1  6  0  0  0
 12 13  1  0  0  0  0
 12 14  1  0  0  0  0
 13 15  1  0  0  0  0
 14 16  1  0  0  0  0
 15 17  1  0  0  0  0
 16 17  1  0  0  0  0
 12 18  1  1  0  0  0
 13 19  1  6  0  0  0
 15 20  1  1  0  0  0
 17  7  1  6  0  0  0
 16 21  1  1  0  0  0
 22 21  1  0  0  0  0
 23 24  1  0  0  0  0
 23 25  1  0  0  0  0
 24 26  1  0  0  0  0
 25 27  1  0  0  0  0
 26 28  1  0  0  0  0
 27 28  1  0  0  0  0
 23 29  1  1  0  0  0
 24 30  1  6  0  0  0
 26 31  1  1  0  0  0
 28 18  1  1  0  0  0
 27 32  1  1  0  0  0
 33 32  1  0  0  0  0
M  END
> <ID>
CHEBI:61856

> <NAME>
beta-L-Rhap-(1->4)-beta-D-Glcp-(1->4)-beta-D-Galp

> <DEFINITION>
A trisaccharide composed of a β-L-rhamnosyl residue linked (1→4) to a β-D-glucosyl residue which is in turn linked (1→4) to β-D-galactose.

> <STAR>
3

> <SYNONYM>
beta-L-rhamnosyl-(1->4)-beta-D-glucosyl-(1->4)-beta-D-galactose; beta-L-Rha-(1->4)-beta-D-Glc-(1->4)-beta-D-Gal; 6-deoxy-beta-L-mannopyranosyl-(1->4)-beta-D-glucopyranosyl-(1->4)-beta-D-galactopyranose

> <IUPAC_NAME>
beta-L-rhamnopyranosyl-(1->4)-beta-D-glucopyranosyl-(1->4)-beta-D-galactopyranose

> <FORMULA>
C18H32O15

> <MASS>
488.43770

> <MONOISOTOPIC_MASS>
488.17412

> <CHARGE>
0

> <SMILES>
C[C@@H]1O[C@H](O[C@@H]2[C@@H](CO)O[C@@H](O[C@H]3[C@@H](CO)O[C@@H](O)[C@H](O)[C@H]3O)[C@H](O)[C@H]2O)[C@H](O)[C@H](O)[C@H]1O

> <INCHI>
InChI=1S/C18H32O15/c1-4-7(21)8(22)12(26)17(29-4)32-15-6(3-20)31-18(13(27)10(15)24)33-14-5(2-19)30-16(28)11(25)9(14)23/h4-28H,2-3H2,1H3/t4-,5+,6+,7-,8+,9+,10+,11+,12+,13+,14-,15+,16+,17+,18-/m0/s1

> <INCHIKEY>
VRSXSNOOHWJZDV-OYGSXECQSA-N

> <PUBMED_CITATION>
7509318

$$$$

Marvin  04121116262D          

 39 41  0  0  1  0            999 V2000
   18.8255  -17.2900    0.0000 C   0  0  0  0  0  0  0  0  0  0  0  0
   18.8255  -18.6200    0.0000 C   0  0  0  0  0  0  0  0  0  0  0  0
   17.6736  -16.6250    0.0000 O   0  0  0  0  0  0  0  0  0  0  0  0
   17.6736  -19.2850    0.0000 C   0  0  0  0  0  0  0  0  0  0  0  0
   16.5218  -17.2900    0.0000 C   0  0  0  0  0  0  0  0  0  0  0  0
   16.5218  -18.6200    0.0000 C   0  0  0  0  0  0  0  0  0  0  0  0
   19.9773  -16.6250    0.0000 O   0  0  0  0  0  0  0  0  0  0  0  0
   19.9773  -19.2850    0.0000 N   0  0  0  0  0  0  0  0  0  0  0  0
   17.6735  -20.6150    0.0000 O   0  0  0  0  0  0  0  0  0  0  0  0
   15.3700  -19.2850    0.0000 O   0  0  0  0  0  0  0  0  0  0  0  0
   15.3700  -16.6250    0.0000 C   0  0  0  0  0  0  0  0  0  0  0  0
   21.1384  -18.6202    0.0000 C   0  0  0  0  0  0  0  0  0  0  0  0
   22.2878  -19.2894    0.0000 C   0  0  0  0  0  0  0  0  0  0  0  0
   21.1432  -17.2902    0.0000 O   0  0  0  0  0  0  0  0  0  0  0  0
   15.3671  -15.3030    0.0000 O   0  0  0  0  0  0  0  0  0  0  0  0
   14.2182  -18.6200    0.0000 C   0  0  0  0  0  0  0  0  0  0  0  0
   13.0663  -19.2849    0.0000 C   0  0  0  0  0  0  0  0  0  0  0  0
   14.2182  -17.2899    0.0000 O   0  0  0  0  0  0  0  0  0  0  0  0
   11.9145  -18.6198    0.0000 C   0  0  0  0  0  0  0  0  0  0  0  0
   13.0664  -16.6249    0.0000 C   0  0  0  0  0  0  0  0  0  0  0  0
   11.9146  -17.2899    0.0000 C   0  0  0  0  0  0  0  0  0  0  0  0
   13.0663  -20.6149    0.0000 N   0  0  0  0  0  0  0  0  0  0  0  0
   10.7627  -19.2848    0.0000 O   0  0  0  0  0  0  0  0  0  0  0  0
   10.7628  -16.6248    0.0000 O   0  0  0  0  0  0  0  0  0  0  0  0
   13.0664  -15.2950    0.0000 C   0  0  0  0  0  0  0  0  0  0  0  0
   11.9146  -14.6299    0.0000 O   0  0  0  0  0  0  0  0  0  0  0  0
   11.9099  -21.2880    0.0000 C   0  0  0  0  0  0  0  0  0  0  0  0
   11.9146  -22.6180    0.0000 C   0  0  0  0  0  0  0  0  0  0  0  0
   10.7558  -20.6271    0.0000 O   0  0  0  0  0  0  0  0  0  0  0  0
   18.8253  -21.2800    0.0000 C   0  0  0  0  0  0  0  0  0  0  0  0
   18.8253  -22.6100    0.0000 C   0  0  0  0  0  0  0  0  0  0  0  0
   19.9772  -20.6150    0.0000 O   0  0  0  0  0  0  0  0  0  0  0  0
   19.9772  -23.2750    0.0000 C   0  0  0  0  0  0  0  0  0  0  0  0
   21.1290  -21.2800    0.0000 C   0  0  0  0  0  0  0  0  0  0  0  0
   21.1290  -22.6100    0.0000 C   0  0  0  0  0  0  0  0  0  0  0  0
   17.6735  -23.2750    0.0000 O   0  0  0  0  0  0  0  0  0  0  0  0
   19.9773  -24.6050    0.0000 O   0  0  0  0  0  0  0  0  0  0  0  0
   22.2808  -23.2750    0.0000 O   0  0  0  0  0  0  0  0  0  0  0  0
   22.2808  -20.6150    0.0000 C   0  0  0  0  0  0  0  0  0  0  0  0
  1  2  1  0  0  0  0
  1  3  1  0  0  0  0
  2  4  1  0  0  0  0
  3  5  1  0  0  0  0
  4  6  1  0  0  0  0
  5  6  1  0  0  0  0
  1  7  1  0  0  0  0
  2  8  1  6  0  0  0
  4  9  1  1  0  0  0
  6 10  1  6  0  0  0
  5 11  1  1  0  0  0
  8 12  1  0  0  0  0
 12 13  1  0  0  0  0
 12 14  2  0  0  0  0
 11 15  1  0  0  0  0
 16 17  1  0  0  0  0
 16 18  1  0  0  0  0
 17 19  1  0  0  0  0
 18 20  1  0  0  0  0
 19 21  1  0  0  0  0
 20 21  1  0  0  0  0
 16 10  1  1  0  0  0
 17 22  1  6  0  0  0
 19 23  1  1  0  0  0
 21 24  1  1  0  0  0
 20 25  1  1  0  0  0
 26 25  1  0  0  0  0
 22 27  1  0  0  0  0
 27 28  1  0  0  0  0
 27 29  2  0  0  0  0
 30 31  1  0  0  0  0
 30 32  1  0  0  0  0
 31 33  1  0  0  0  0
 32 34  1  0  0  0  0
 33 35  1  0  0  0  0
 34 35  1  0  0  0  0
 30  9  1  6  0  0  0
 31 36  1  6  0  0  0
 33 37  1  1  0  0  0
 35 38  1  1  0  0  0
 34 39  1  1  0  0  0
M  END
> <ID>
CHEBI:61864

> <NAME>
beta-D-GalpNAc-(1->4)-[alpha-L-Fucp-(1->3)]-D-GlcpNAc

> <DEFINITION>
An amino trisaccharide comprising an acetamido-β-D-galactose and an α-L-fucose attached to an acetamidoglucose by 1→4 and 1→3 linkages, respectively.

> <STAR>
3

> <SYNONYM>
LDN-F; GalNAc(beta1-4)[Fuc(alpha1-3)]GlcNAc; Fucosylated lacdiNAc; beta-D-GalNAc-(1->4)-[alpha-L-Fuc-(1->3)]-D-GlcNAc; 2-acetamido-2-deoxy-beta-D-galactopyranosyl-(1->4)-[alpha-L-fucopyranosyl-(1->3)]-2-acetamido-2-deoxy-D-glucopyranose; 2-(acetylamino)-2-deoxy-beta-D-galactopyranosyl-(1->4)-[6-deoxy-alpha-L-galactopyranosyl-(1->3)]-2-(acetylamino)-2-deoxy-D-glucopyranose; (GalNAc)1 (GlcNAc)1 (LFuc)1

> <IUPAC_NAME>
2-acetamido-2-deoxy-beta-D-galactopyranosyl-(1->4)-[6-deoxy-alpha-L-galactopyranosyl-(1->3)]-2-acetamido-2-deoxy-D-glucopyranose

> <FORMULA>
C22H38N2O15

> <MASS>
570.54150

> <MONOISOTOPIC_MASS>
570.22722

> <CHARGE>
0

> <SMILES>
C[C@@H]1O[C@@H](O[C@@H]2[C@@H](NC(C)=O)C(O)O[C@H](CO)[C@H]2O[C@@H]2O[C@H](CO)[C@H](O)[C@H](O)[C@H]2NC(C)=O)[C@@H](O)[C@H](O)[C@@H]1O

> <INCHI>
InChI=1S/C22H38N2O15/c1-6-13(29)16(32)17(33)22(35-6)39-19-12(24-8(3)28)20(34)36-10(5-26)18(19)38-21-11(23-7(2)27)15(31)14(30)9(4-25)37-21/h6,9-22,25-26,29-34H,4-5H2,1-3H3,(H,23,27)(H,24,28)/t6-,9+,10+,11+,12+,13+,14-,15+,16+,17-,18+,19+,20?,21-,22-/m0/s1

> <INCHIKEY>
UZZNPRAXUPVEEY-HRVOHQSGSA-N

> <KEGG_GLYCAN_ACCESSION>
G01594

> <PUBMED_CITATION>
10814702; 12932753; 19695255; 22241826

$$$$

Marvin  04121117012D          

 32 34  0  0  1  0            999 V2000
   13.2091   -5.3718    0.0000 O   0  0  0  0  0  0  0  0  0  0  0  0
   16.0669   -3.7218    0.0000 O   0  0  0  0  0  0  0  0  0  0  0  0
   15.3524   -4.1343    0.0000 C   0  0  1  0  0  0  0  0  0  0  0  0
   15.3524   -4.9593    0.0000 C   0  0  1  0  0  0  0  0  0  0  0  0
   14.6379   -3.7218    0.0000 O   0  0  0  0  0  0  0  0  0  0  0  0
   14.6379   -5.3718    0.0000 C   0  0  2  0  0  0  0  0  0  0  0  0
   13.9235   -4.1343    0.0000 C   0  0  1  0  0  0  0  0  0  0  0  0
   13.9235   -4.9593    0.0000 C   0  0  2  0  0  0  0  0  0  0  0  0
   16.0967   -6.1371    0.0000 O   0  0  0  0  0  0  0  0  0  0  0  0
   14.6379   -6.1967    0.0000 O   0  0  0  0  0  0  0  0  0  0  0  0
   13.2091   -3.7218    0.0000 C   0  0  0  0  0  0  0  0  0  0  0  0
   13.2091   -2.8968    0.0000 O   0  0  0  0  0  0  0  0  0  0  0  0
   18.9246   -2.0718    0.0000 O   0  0  0  0  0  0  0  0  0  0  0  0
   18.2102   -2.4843    0.0000 C   0  0  2  0  0  0  0  0  0  0  0  0
   18.2102   -3.3091    0.0000 C   0  0  1  0  0  0  0  0  0  0  0  0
   17.4957   -2.0718    0.0000 O   0  0  0  0  0  0  0  0  0  0  0  0
   17.4957   -3.7217    0.0000 C   0  0  1  0  0  0  0  0  0  0  0  0
   16.7813   -2.4843    0.0000 C   0  0  2  0  0  0  0  0  0  0  0  0
   16.7813   -3.3093    0.0000 C   0  0  2  0  0  0  0  0  0  0  0  0
   18.9247   -3.7218    0.0000 O   0  0  0  0  0  0  0  0  0  0  0  0
   17.4957   -4.5467    0.0000 O   0  0  0  0  0  0  0  0  0  0  0  0
   16.0669   -2.0719    0.0000 C   0  0  0  0  0  0  0  0  0  0  0  0
   15.4301   -7.1336    0.0000 C   0  0  1  0  0  0  0  0  0  0  0  0
   15.4301   -7.9585    0.0000 C   0  0  1  0  0  0  0  0  0  0  0  0
   14.7156   -6.7211    0.0000 O   0  0  0  0  0  0  0  0  0  0  0  0
   14.7157   -8.3710    0.0000 C   0  0  1  0  0  0  0  0  0  0  0  0
   14.0012   -7.1336    0.0000 C   0  0  2  0  0  0  0  0  0  0  0  0
   14.0012   -7.9587    0.0000 C   0  0  2  0  0  0  0  0  0  0  0  0
   16.1445   -8.3712    0.0000 O   0  0  0  0  0  0  0  0  0  0  0  0
   14.7156   -9.1961    0.0000 O   0  0  0  0  0  0  0  0  0  0  0  0
   13.2867   -6.7213    0.0000 C   0  0  0  0  0  0  0  0  0  0  0  0
   13.2868   -8.3712    0.0000 O   0  0  0  0  0  0  0  0  0  0  0  0
  3  4  1  0  0  0  0
  3  5  1  0  0  0  0
  4  6  1  0  0  0  0
  5  7  1  0  0  0  0
  6  8  1  0  0  0  0
  7  8  1  0  0  0  0
  3  2  1  1  0  0  0
  4  9  1  6  0  0  0
  6 10  1  1  0  0  0
  8  1  1  1  0  0  0
  7 11  1  1  0  0  0
 11 12  1  0  0  0  0
 14 15  1  0  0  0  0
 14 16  1  0  0  0  0
 15 17  1  0  0  0  0
 16 18  1  0  0  0  0
 17 19  1  0  0  0  0
 18 19  1  0  0  0  0
 14 13  1  6  0  0  0
 15 20  1  6  0  0  0
 17 21  1  6  0  0  0
 18 22  1  6  0  0  0
 19  2  1  1  0  0  0
 23 24  1  0  0  0  0
 23 25  1  0  0  0  0
 24 26  1  0  0  0  0
 25 27  1  0  0  0  0
 26 28  1  0  0  0  0
 27 28  1  0  0  0  0
 24 29  1  6  0  0  0
 26 30  1  6  0  0  0
 27 31  1  6  0  0  0
 28 32  1  1  0  0  0
 23  9  1  1  0  0  0
M  END
> <ID>
CHEBI:61867

> <NAME>
alpha-L-Rhap-(1->2)-beta-D-Galp-(1->4)-beta-L-Rhap

> <DEFINITION>
A trisaccharide composed of an α-L-rhamnosyl residue linked (1→2) to a β-D-galactosyl residue which is in turn linked (1→4) to β-L-rhamnose.

> <STAR>
3

> <SYNONYM>
alpha-L-rhamnosyl-(1->2)-beta-D-galactosyl-(1->4)-beta-L-rhamnose; alpha-L-Rha-(1->2)-beta-D-Gal-(1->4)-beta-L-Rha; 6-deoxy-alpha-L-mannopyranosyl-(1->2)-beta-D-galactopyranosyl-(1->4)-6-deoxy-beta-L-mannopyranose

> <IUPAC_NAME>
alpha-L-rhamnopyranosyl-(1->2)-beta-D-galactopyranosyl-(1->4)-beta-L-rhamnopyranose

> <FORMULA>
C18H32O14

> <MASS>
472.43830

> <MONOISOTOPIC_MASS>
472.17921

> <CHARGE>
0

> <SMILES>
C[C@@H]1O[C@@H](O[C@@H]2[C@@H](O)[C@@H](O)[C@@H](CO)O[C@H]2O[C@H]2[C@H](C)O[C@H](O)[C@H](O)[C@@H]2O)[C@H](O)[C@H](O)[C@H]1O

> <INCHI>
InChI=1S/C18H32O14/c1-4-7(20)9(22)13(26)17(29-4)32-15-10(23)8(21)6(3-19)30-18(15)31-14-5(2)28-16(27)12(25)11(14)24/h4-27H,3H2,1-2H3/t4-,5-,6+,7-,8-,9+,10-,11-,12+,13+,14-,15+,16-,17-,18-/m0/s1

> <INCHIKEY>
MKYLWGKGMZIXON-INNYRQIPSA-N

> <PUBMED_CITATION>
7509318

$$$$

Marvin  04131109432D          

 47 50  0  0  1  0            999 V2000
    6.3050   -5.4702    0.0000 C   0  0  1  0  0  0  0  0  0  0  0  0
    5.5905   -5.8826    0.0000 C   0  0  1  0  0  0  0  0  0  0  0  0
    6.3050   -4.6451    0.0000 O   0  0  0  0  0  0  0  0  0  0  0  0
    4.8762   -5.4701    0.0000 C   0  0  2  0  0  0  0  0  0  0  0  0
    5.5906   -4.2326    0.0000 C   0  0  1  0  0  0  0  0  0  0  0  0
    4.8762   -4.6451    0.0000 C   0  0  1  0  0  0  0  0  0  0  0  0
    5.5905   -6.7076    0.0000 O   0  0  0  0  0  0  0  0  0  0  0  0
    4.1616   -5.8826    0.0000 O   0  0  0  0  0  0  0  0  0  0  0  0
    4.1616   -4.2326    0.0000 O   0  0  0  0  0  0  0  0  0  0  0  0
    5.5906   -3.4076    0.0000 C   0  0  0  0  0  0  0  0  0  0  0  0
    4.8762   -2.9951    0.0000 O   0  0  0  0  0  0  0  0  0  0  0  0
    7.0195   -5.8827    0.0000 O   0  0  0  0  0  0  0  0  0  0  0  0
    9.8773   -4.2328    0.0000 O   0  0  0  0  0  0  0  0  0  0  0  0
    9.1629   -4.6452    0.0000 C   0  0  1  0  0  0  0  0  0  0  0  0
    9.1629   -5.4702    0.0000 C   0  0  1  0  0  0  0  0  0  0  0  0
    8.4484   -4.2328    0.0000 O   0  0  0  0  0  0  0  0  0  0  0  0
    8.4484   -5.8827    0.0000 C   0  0  2  0  0  0  0  0  0  0  0  0
    7.7340   -4.6452    0.0000 C   0  0  1  0  0  0  0  0  0  0  0  0
    7.7340   -5.4702    0.0000 C   0  0  2  0  0  0  0  0  0  0  0  0
    9.8773   -5.8827    0.0000 O   0  0  0  0  0  0  0  0  0  0  0  0
    8.4484   -6.7077    0.0000 O   0  0  0  0  0  0  0  0  0  0  0  0
    7.0195   -4.2328    0.0000 C   0  0  0  0  0  0  0  0  0  0  0  0
    7.0195   -3.4077    0.0000 O   0  0  0  0  0  0  0  0  0  0  0  0
    9.8773   -6.7077    0.0000 C   0  0  1  0  0  0  0  0  0  0  0  0
   10.5918   -7.1202    0.0000 C   0  0  1  0  0  0  0  0  0  0  0  0
    9.1629   -7.1202    0.0000 O   0  0  0  0  0  0  0  0  0  0  0  0
   10.5918   -7.9452    0.0000 C   0  0  1  0  0  0  0  0  0  0  0  0
    9.1629   -7.9452    0.0000 C   0  0  2  0  0  0  0  0  0  0  0  0
    9.8773   -8.3576    0.0000 C   0  0  2  0  0  0  0  0  0  0  0  0
   11.3064   -6.7078    0.0000 O   0  0  0  0  0  0  0  0  0  0  0  0
   11.3062   -8.3578    0.0000 O   0  0  0  0  0  0  0  0  0  0  0  0
    8.4485   -8.3576    0.0000 C   0  0  0  0  0  0  0  0  0  0  0  0
    9.8773   -9.1826    0.0000 O   0  0  0  0  0  0  0  0  0  0  0  0
    3.4472   -5.4701    0.0000 P   0  0  0  0  0  0  0  0  0  0  0  0
    2.7327   -5.8826    0.0000 O   0  0  0  0  0  0  0  0  0  0  0  0
    3.4472   -4.6451    0.0000 O   0  0  0  0  0  0  0  0  0  0  0  0
    3.4472   -6.2951    0.0000 O   0  0  0  0  0  0  0  0  0  0  0  0
   12.7354   -2.5826    0.0000 O   0  0  0  0  0  0  0  0  0  0  0  0
   12.0209   -2.9951    0.0000 C   0  0  2  0  0  0  0  0  0  0  0  0
   12.0209   -3.8200    0.0000 C   0  0  1  0  0  0  0  0  0  0  0  0
   11.3063   -2.5826    0.0000 O   0  0  0  0  0  0  0  0  0  0  0  0
   11.3063   -4.2327    0.0000 C   0  0  1  0  0  0  0  0  0  0  0  0
   10.5919   -2.9951    0.0000 C   0  0  2  0  0  0  0  0  0  0  0  0
   10.5919   -3.8202    0.0000 C   0  0  2  0  0  0  0  0  0  0  0  0
   12.7355   -4.2328    0.0000 O   0  0  0  0  0  0  0  0  0  0  0  0
   11.3063   -5.0578    0.0000 O   0  0  0  0  0  0  0  0  0  0  0  0
    9.8773   -2.5827    0.0000 C   0  0  0  0  0  0  0  0  0  0  0  0
  1  2  1  0  0  0  0
  1  3  1  0  0  0  0
  2  4  1  0  0  0  0
  3  5  1  0  0  0  0
  4  6  1  0  0  0  0
  5  6  1  0  0  0  0
  2  7  1  6  0  0  0
  4  8  1  1  0  0  0
  6  9  1  6  0  0  0
  5 10  1  1  0  0  0
 11 10  1  0  0  0  0
  1 12  1  1  0  0  0
 14 15  1  0  0  0  0
 14 16  1  0  0  0  0
 15 17  1  0  0  0  0
 16 18  1  0  0  0  0
 17 19  1  0  0  0  0
 18 19  1  0  0  0  0
 14 13  1  1  0  0  0
 15 20  1  6  0  0  0
 17 21  1  1  0  0  0
 19 12  1  1  0  0  0
 18 22  1  1  0  0  0
 22 23  1  0  0  0  0
 24 25  1  0  0  0  0
 24 26  1  0  0  0  0
 25 27  1  0  0  0  0
 26 28  1  0  0  0  0
 27 29  1  0  0  0  0
 28 29  1  0  0  0  0
 24 20  1  1  0  0  0
 25 30  1  6  0  0  0
 27 31  1  6  0  0  0
 28 32  1  6  0  0  0
 29 33  1  1  0  0  0
  8 34  1  0  0  0  0
 34 35  1  0  0  0  0
 34 36  2  0  0  0  0
 34 37  1  0  0  0  0
 39 40  1  0  0  0  0
 39 41  1  0  0  0  0
 40 42  1  0  0  0  0
 41 43  1  0  0  0  0
 42 44  1  0  0  0  0
 43 44  1  0  0  0  0
 39 38  1  6  0  0  0
 40 45  1  6  0  0  0
 42 46  1  6  0  0  0
 43 47  1  6  0  0  0
 44 13  1  1  0  0  0
M  END
> <ID>
CHEBI:61868

> <NAME>
3-O-(H2O3P)-beta-D-Glcp-(1->4)-[alpha-L-Rhap-(1->2)]-beta-D-Galp-(1->4)-beta-L-Rhap

> <DEFINITION>
A branched tetrasaccharide derivative consisting of β-L-rhamnose having a 3-O-phosphono-β-D-glucosyl-(1→4)-[α-L-rhamnosyl-(1→2)]-β-D-galactosyl moiety attached at the 4-position.

> <STAR>
3

> <SYNONYM>
6-deoxy-alpha-L-mannopyranosyl-(1->2)-[3-O-phosphono-beta-D-glucopyranosyl-(1->4)]-beta-D-galactopyranosyl-(1->4)-6-deoxy-beta-L-mannopyranose; 3-P-beta-D-Glcp-(1->4)-[alpha-L-Rhap-(1->2)]-beta-D-Galp-(1->4)-beta-L-Rhap; 3-P-beta-D-Glc-(1->4)-[alpha-L-Rha-(1->2)]-beta-D-Gal-(1->4)-beta-L-Rha; 3-O-phosphono-beta-D-glucosyl-(1->4)-[alpha-L-rhamnosyl-(1->2)]-beta-D-galactosyl-(1->4)-beta-L-mannose; 3-O-(H2O3P)-beta-D-Glc-(1->4)-[alpha-L-Rha-(1->2)]-beta-D-Gal-(1->4)-beta-L-Rha

> <IUPAC_NAME>
3-O-phosphono-beta-D-glucopyranosyl-(1->4)-[alpha-L-rhamnopyranosyl-(1->2)]-beta-D-galactopyranosyl-(1->4)-beta-L-mannopyranose

> <FORMULA>
C24H43O22P

> <MASS>
714.55880

> <MONOISOTOPIC_MASS>
714.19836

> <CHARGE>
0

> <SMILES>
C[C@@H]1O[C@@H](O[C@@H]2[C@@H](O)[C@@H](O[C@@H]3O[C@H](CO)[C@@H](O)[C@H](OP(O)(O)=O)[C@H]3O)[C@@H](CO)O[C@H]2O[C@H]2[C@H](C)O[C@H](O)[C@H](O)[C@@H]2O)[C@H](O)[C@H](O)[C@H]1O

> <INCHI>
InChI=1S/C24H43O22P/c1-5-9(27)11(29)14(32)22(40-5)45-20-15(33)18(44-23-16(34)19(46-47(36,37)38)10(28)7(3-25)41-23)8(4-26)42-24(20)43-17-6(2)39-21(35)13(31)12(17)30/h5-35H,3-4H2,1-2H3,(H2,36,37,38)/t5-,6-,7+,8+,9-,10+,11+,12-,13+,14+,15-,16+,17-,18-,19-,20+,21-,22-,23-,24-/m0/s1

> <INCHIKEY>
XVLCZNGPHDLPQN-KIFNXHISSA-N

> <PUBMED_CITATION>
7509318

$$$$

Marvin  04131110412D          

 17 16  0  0  1  0            999 V2000
   12.5809   -5.5986    0.0000 C   0  0  0  0  0  0  0  0  0  0  0  0
   12.5809   -4.7736    0.0000 O   0  0  0  0  0  0  0  0  0  0  0  0
   11.8664   -6.0111    0.0000 C   0  0  1  0  0  0  0  0  0  0  0  0
   11.8664   -6.8361    0.0000 N   0  0  0  0  0  0  0  0  0  0  0  0
    8.2939   -5.5986    0.0000 N   0  0  0  0  0  0  0  0  0  0  0  0
    9.0084   -6.0111    0.0000 C   0  0  0  0  0  0  0  0  0  0  0  0
   11.1519   -5.5986    0.0000 C   0  0  0  0  0  0  0  0  0  0  0  0
    9.7229   -5.5986    0.0000 C   0  0  0  0  0  0  0  0  0  0  0  0
   10.4375   -6.0111    0.0000 C   0  0  0  0  0  0  0  0  0  0  0  0
   13.2954   -6.0111    0.0000 O   0  0  0  0  0  0  0  0  0  0  0  0
    7.5795   -6.0111    0.0000 C   0  0  0  0  0  0  0  0  0  0  0  0
    6.8650   -5.5986    0.0000 C   0  0  2  0  0  0  0  0  0  0  0  0
    6.1505   -6.0111    0.0000 C   0  0  0  0  0  0  0  0  0  0  0  0
    5.4361   -5.5986    0.0000 C   0  0  0  0  0  0  0  0  0  0  0  0
    4.7215   -6.0110    0.0000 S   0  0  0  0  0  0  0  0  0  0  0  0
    7.5795   -6.8361    0.0000 O   0  0  0  0  0  0  0  0  0  0  0  0
    6.8650   -4.7736    0.0000 N   0  0  0  0  0  0  0  0  0  0  0  0
  1  2  2  0  0  0  0
  1  3  1  0  0  0  0
  3  4  1  1  0  0  0
  3  7  1  0  0  0  0
  5  6  1  0  0  0  0
  6  8  1  0  0  0  0
  7  9  1  0  0  0  0
  8  9  1  0  0  0  0
 10  1  1  0  0  0  0
  5 11  1  0  0  0  0
 11 12  1  0  0  0  0
 12 13  1  0  0  0  0
 13 14  1  0  0  0  0
 14 15  1  0  0  0  0
 11 16  2  0  0  0  0
 12 17  1  6  0  0  0
M  END
> <ID>
CHEBI:61869

> <NAME>
N(6)-L-homocysteinyl-L-lysine

> <DEFINITION>
An N6-acyl-L-lysine derivative in which the acyl group is L-homocysteinyl.

> <STAR>
3

> <SYNONYM>
N(epsilon)-L-homocysteyl-L-lysine; Nepsilon-L-Hcy-L-Lys; Nepsilon-Hcy-Lys; N-homocysteinylated lysine; (2S)-2-amino-6-{[(2S)-2-amino-4-sulfanylbutanoyl]amino}hexanoic acid

> <IUPAC_NAME>
N(6)-L-homocysteinyl-L-lysine

> <FORMULA>
C10H21N3O3S

> <MASS>
263.35700

> <MONOISOTOPIC_MASS>
263.13036

> <CHARGE>
0

> <SMILES>
N[C@@H](CCCCNC(=O)[C@@H](N)CCS)C(O)=O

> <INCHI>
InChI=1S/C10H21N3O3S/c11-7(4-6-17)9(14)13-5-2-1-3-8(12)10(15)16/h7-8,17H,1-6,11-12H2,(H,13,14)(H,15,16)/t7-,8-/m0/s1

> <INCHIKEY>
YPBBRHGQGCWAOR-YUMQZZPRSA-N

> <PUBMED_CITATION>
15131313

$$$$

Marvin  04131112242D          

 15 14  0  0  1  0            999 V2000
    9.7504  -21.4129    0.0000 C   0  0  0  0  0  0  0  0  0  0  0  0
    9.7504  -20.5879    0.0000 O   0  0  0  0  0  0  0  0  0  0  0  0
    9.0359  -21.8254    0.0000 C   0  0  2  0  0  0  0  0  0  0  0  0
    9.0359  -22.6504    0.0000 C   0  0  0  0  0  0  0  0  0  0  0  0
    8.3214  -21.4129    0.0000 N   0  0  0  0  0  0  0  0  0  0  0  0
   10.4649  -21.8254    0.0000 O   0  0  0  0  0  0  0  0  0  0  0  0
    7.6069  -21.8254    0.0000 C   0  0  0  0  0  0  0  0  0  0  0  0
    7.6069  -22.6505    0.0000 O   0  0  0  0  0  0  0  0  0  0  0  0
    6.8924  -21.4129    0.0000 C   0  0  1  0  0  0  0  0  0  0  0  0
    6.8924  -20.5879    0.0000 N   0  0  0  0  0  0  0  0  0  0  0  0
    3.3200  -21.8254    0.0000 N   0  0  0  0  0  0  0  0  0  0  0  0
    4.0345  -21.4129    0.0000 C   0  0  0  0  0  0  0  0  0  0  0  0
    6.1779  -21.8254    0.0000 C   0  0  0  0  0  0  0  0  0  0  0  0
    4.7489  -21.8254    0.0000 C   0  0  0  0  0  0  0  0  0  0  0  0
    5.4635  -21.4129    0.0000 C   0  0  0  0  0  0  0  0  0  0  0  0
  1  2  2  0  0  0  0
  1  3  1  0  0  0  0
  3  4  1  6  0  0  0
  3  5  1  0  0  0  0
  6  1  1  0  0  0  0
  5  7  1  0  0  0  0
  7  8  2  0  0  0  0
  7  9  1  0  0  0  0
  9 10  1  6  0  0  0
  9 13  1  0  0  0  0
 11 12  1  0  0  0  0
 12 14  1  0  0  0  0
 13 15  1  0  0  0  0
 14 15  1  0  0  0  0
M  END
> <ID>
CHEBI:61872

> <NAME>
L-lysyl-L-alanine

> <DEFINITION>
A dipeptide formed from L-lysyl and L-alanyl residues.

> <STAR>
3

> <SYNONYM>
Lys-Ala

> <FORMULA>
C9H19N3O3

> <MASS>
217.26550

> <MONOISOTOPIC_MASS>
217.14264

> <CHARGE>
0

> <SMILES>
C[C@H](NC(=O)[C@@H](N)CCCCN)C(O)=O

> <INCHI>
InChI=1S/C9H19N3O3/c1-6(9(14)15)12-8(13)7(11)4-2-3-5-10/h6-7H,2-5,10-11H2,1H3,(H,12,13)(H,14,15)/t6-,7-/m0/s1

> <INCHIKEY>
QOOWRKBDDXQRHC-BQBZGAKWSA-N

> <REAXYS_REGISTRY_NUMBER>
1727359

> <PUBMED_CITATION>
15131313

$$$$

Marvin  04131113292D          

 22 21  0  0  1  0            999 V2000
   13.3334  -25.8124    0.0000 C   0  0  0  0  0  0  0  0  0  0  0  0
   13.3334  -24.9875    0.0000 O   0  0  0  0  0  0  0  0  0  0  0  0
   12.6190  -26.2249    0.0000 C   0  0  2  0  0  0  0  0  0  0  0  0
   12.6190  -27.0499    0.0000 C   0  0  0  0  0  0  0  0  0  0  0  0
   11.9044  -25.8124    0.0000 N   0  0  0  0  0  0  0  0  0  0  0  0
   14.0479  -26.2249    0.0000 O   0  0  0  0  0  0  0  0  0  0  0  0
   11.1900  -26.2249    0.0000 C   0  0  0  0  0  0  0  0  0  0  0  0
   11.1900  -27.0500    0.0000 O   0  0  0  0  0  0  0  0  0  0  0  0
   10.4755  -25.8124    0.0000 C   0  0  1  0  0  0  0  0  0  0  0  0
   10.4755  -24.9875    0.0000 N   0  0  0  0  0  0  0  0  0  0  0  0
    6.9031  -26.2249    0.0000 N   0  0  0  0  0  0  0  0  0  0  0  0
    7.6176  -25.8124    0.0000 C   0  0  0  0  0  0  0  0  0  0  0  0
    9.7610  -26.2249    0.0000 C   0  0  0  0  0  0  0  0  0  0  0  0
    8.3320  -26.2249    0.0000 C   0  0  0  0  0  0  0  0  0  0  0  0
    9.0466  -25.8124    0.0000 C   0  0  0  0  0  0  0  0  0  0  0  0
    6.1887  -25.8124    0.0000 C   0  0  0  0  0  0  0  0  0  0  0  0
    5.4741  -26.2249    0.0000 C   0  0  1  0  0  0  0  0  0  0  0  0
    6.1887  -24.9874    0.0000 O   0  0  0  0  0  0  0  0  0  0  0  0
    5.4741  -27.0499    0.0000 N   0  0  0  0  0  0  0  0  0  0  0  0
    4.0453  -26.2249    0.0000 C   0  0  0  0  0  0  0  0  0  0  0  0
    4.7597  -25.8124    0.0000 C   0  0  0  0  0  0  0  0  0  0  0  0
    3.3308  -25.8124    0.0000 S   0  0  0  0  0  0  0  0  0  0  0  0
  1  2  2  0  0  0  0
  1  3  1  0  0  0  0
  3  4  1  6  0  0  0
  3  5  1  0  0  0  0
  6  1  1  0  0  0  0
  5  7  1  0  0  0  0
  7  8  2  0  0  0  0
  7  9  1  0  0  0  0
  9 10  1  6  0  0  0
  9 13  1  0  0  0  0
 11 12  1  0  0  0  0
 12 14  1  0  0  0  0
 13 15  1  0  0  0  0
 14 15  1  0  0  0  0
 16 17  1  0  0  0  0
 16 18  2  0  0  0  0
 17 19  1  1  0  0  0
 17 21  1  0  0  0  0
 20 21  1  0  0  0  0
 11 16  1  0  0  0  0
 20 22  1  0  0  0  0
M  END
> <ID>
CHEBI:61874

> <NAME>
N(6)-(L-homocysteinyl)-L-lysyl-L-alanine

> <DEFINITION>
A tripeptide formed between L-Hcy, L-Lys and L-Ala in a linear sequence, with the peptide bond between Hcy and Lys being from the carboxy group of the Hcy to the ε-nitrogen of the lysine.

> <STAR>
3

> <SYNONYM>
Nepsilon-Hcy-LysAla; N(epsilon)-Hcy-Lys-Ala

> <IUPAC_NAME>
N(6)-(L-homocysteinyl)-L-lysyl-L-alanine

> <FORMULA>
C13H26N4O4S

> <MASS>
334.43500

> <MONOISOTOPIC_MASS>
334.16748

> <CHARGE>
0

> <SMILES>
C[C@H](NC(=O)[C@@H](N)CCCCNC(=O)[C@@H](N)CCS)C(O)=O

> <INCHI>
InChI=1S/C13H26N4O4S/c1-8(13(20)21)17-12(19)9(14)4-2-3-6-16-11(18)10(15)5-7-22/h8-10,22H,2-7,14-15H2,1H3,(H,16,18)(H,17,19)(H,20,21)/t8-,9-,10-/m0/s1

> <INCHIKEY>
QAVAJALPZPZBJL-GUBZILKMSA-N

> <PUBMED_CITATION>
15131313

$$$$

Marvin  04131115142D          

 20 19  0  0  1  0            999 V2000
   10.8116  -34.7721    0.0000 C   0  0  0  0  0  0  0  0  0  0  0  0
   10.8116  -33.9471    0.0000 O   0  0  0  0  0  0  0  0  0  0  0  0
   10.0971  -35.1846    0.0000 C   0  0  1  0  0  0  0  0  0  0  0  0
   10.0971  -36.0096    0.0000 N   0  0  0  0  0  0  0  0  0  0  0  0
    6.5246  -34.7721    0.0000 N   0  0  0  0  0  0  0  0  0  0  0  0
    7.2391  -35.1846    0.0000 C   0  0  0  0  0  0  0  0  0  0  0  0
    9.3826  -34.7721    0.0000 C   0  0  0  0  0  0  0  0  0  0  0  0
    7.9536  -34.7721    0.0000 C   0  0  0  0  0  0  0  0  0  0  0  0
    8.6682  -35.1846    0.0000 C   0  0  0  0  0  0  0  0  0  0  0  0
   11.5261  -35.1846    0.0000 O   0  0  0  0  0  0  0  0  0  0  0  0
    9.3826  -36.4221    0.0000 C   0  0  0  0  0  0  0  0  0  0  0  0
    9.3826  -37.2471    0.0000 O   0  0  0  0  0  0  0  0  0  0  0  0
    8.6681  -36.0096    0.0000 C   0  0  0  0  0  0  0  0  0  0  0  0
    5.8102  -35.1846    0.0000 C   0  0  0  0  0  0  0  0  0  0  0  0
    5.0957  -34.7721    0.0000 C   0  0  1  0  0  0  0  0  0  0  0  0
    5.8102  -36.0096    0.0000 O   0  0  0  0  0  0  0  0  0  0  0  0
    5.0957  -33.9471    0.0000 N   0  0  0  0  0  0  0  0  0  0  0  0
    3.6668  -34.7721    0.0000 C   0  0  0  0  0  0  0  0  0  0  0  0
    4.3812  -35.1846    0.0000 C   0  0  0  0  0  0  0  0  0  0  0  0
    2.9523  -35.1846    0.0000 S   0  0  0  0  0  0  0  0  0  0  0  0
  1  2  2  0  0  0  0
  1  3  1  0  0  0  0
  3  4  1  1  0  0  0
  3  7  1  0  0  0  0
  5  6  1  0  0  0  0
  6  8  1  0  0  0  0
  7  9  1  0  0  0  0
  8  9  1  0  0  0  0
 10  1  1  0  0  0  0
 12 11  2  0  0  0  0
 13 11  1  0  0  0  0
  4 11  1  0  0  0  0
 14 15  1  0  0  0  0
 14 16  2  0  0  0  0
 15 17  1  6  0  0  0
 15 19  1  0  0  0  0
 18 19  1  0  0  0  0
  5 14  1  0  0  0  0
 18 20  1  0  0  0  0
M  END
> <ID>
CHEBI:61875

> <NAME>
N(6)-L-homocysteinyl-N(2)-acetyl-L-lysine

> <DEFINITION>
A dipeptide in which the carboxy group of L-homocysteine forms an amide bond with the ε-nitrogen of Nα-acetylated L-lysine

> <STAR>
3

> <SYNONYM>
Nepsilon-Hcy-Nalpha-Ac-Lys

> <IUPAC_NAME>
N(6)-L-homocysteinyl-N(2)-acetyl-L-lysine

> <FORMULA>
C12H23N3O4S

> <MASS>
305.39400

> <MONOISOTOPIC_MASS>
305.14093

> <CHARGE>
0

> <SMILES>
CC(=O)N[C@@H](CCCCNC(=O)[C@@H](N)CCS)C(O)=O

> <INCHI>
InChI=1S/C12H23N3O4S/c1-8(16)15-10(12(18)19)4-2-3-6-14-11(17)9(13)5-7-20/h9-10,20H,2-7,13H2,1H3,(H,14,17)(H,15,16)(H,18,19)/t9-,10-/m0/s1

> <INCHIKEY>
HLFVWKWTRPXEQK-UWVGGRQHSA-N

> <PUBMED_CITATION>
15131313

$$$$

Marvin  04131115392D          

 20 19  0  0  1  0            999 V2000
   22.2125  -35.3783    0.0000 C   0  0  0  0  0  0  0  0  0  0  0  0
   22.2125  -34.5532    0.0000 O   0  0  0  0  0  0  0  0  0  0  0  0
   21.4980  -35.7908    0.0000 C   0  0  1  0  0  0  0  0  0  0  0  0
   21.4980  -36.6158    0.0000 N   0  0  0  0  0  0  0  0  0  0  0  0
   17.9256  -35.3783    0.0000 N   0  0  0  0  0  0  0  0  0  0  0  0
   18.6401  -35.7908    0.0000 C   0  0  0  0  0  0  0  0  0  0  0  0
   20.7835  -35.3783    0.0000 C   0  0  0  0  0  0  0  0  0  0  0  0
   19.3545  -35.3783    0.0000 C   0  0  0  0  0  0  0  0  0  0  0  0
   20.0691  -35.7908    0.0000 C   0  0  0  0  0  0  0  0  0  0  0  0
   22.9270  -35.7908    0.0000 O   0  0  0  0  0  0  0  0  0  0  0  0
   17.2111  -35.7907    0.0000 C   0  0  0  0  0  0  0  0  0  0  0  0
   17.2111  -36.6157    0.0000 O   0  0  0  0  0  0  0  0  0  0  0  0
   16.4966  -35.3782    0.0000 C   0  0  0  0  0  0  0  0  0  0  0  0
   21.4980  -37.4408    0.0000 C   0  0  0  0  0  0  0  0  0  0  0  0
   20.7835  -37.8533    0.0000 C   0  0  1  0  0  0  0  0  0  0  0  0
   20.7835  -38.6783    0.0000 N   0  0  0  0  0  0  0  0  0  0  0  0
   19.3546  -37.8533    0.0000 C   0  0  0  0  0  0  0  0  0  0  0  0
   20.0690  -37.4408    0.0000 C   0  0  0  0  0  0  0  0  0  0  0  0
   22.2124  -37.8533    0.0000 O   0  0  0  0  0  0  0  0  0  0  0  0
   18.6401  -37.4408    0.0000 S   0  0  0  0  0  0  0  0  0  0  0  0
  1  2  2  0  0  0  0
  1  3  1  0  0  0  0
  3  4  1  1  0  0  0
  3  7  1  0  0  0  0
  5  6  1  0  0  0  0
  6  8  1  0  0  0  0
  7  9  1  0  0  0  0
  8  9  1  0  0  0  0
 10  1  1  0  0  0  0
 12 11  2  0  0  0  0
 13 11  1  0  0  0  0
  5 11  1  0  0  0  0
 14 15  1  0  0  0  0
 14  4  1  0  0  0  0
 15 16  1  1  0  0  0
 15 18  1  0  0  0  0
 17 18  1  0  0  0  0
 19 14  2  0  0  0  0
 17 20  1  0  0  0  0
M  END
> <ID>
CHEBI:61876

> <NAME>
L-homocysteinyl-N(6)-acetyl-L-lysine

> <DEFINITION>
A dipeptide in which the carboxy group of L-homocysteine forms an amide bond with the α-nitrogen of Nε-acetylated L-lysine.

> <STAR>
3

> <SYNONYM>
Nepsilon-Ac-Nalpha-Hcy-Lys; N(6)-acetyl-N(2)-L-homocysteinyl-L-lysine; N(2)-L-homocysteinyl-N(6)-acetyl-L-lysine

> <IUPAC_NAME>
L-homocysteinyl-N(6)-acetyl-L-lysine

> <FORMULA>
C12H23N3O4S

> <MASS>
305.39400

> <MONOISOTOPIC_MASS>
305.14093

> <CHARGE>
0

> <SMILES>
CC(=O)NCCCC[C@H](NC(=O)[C@@H](N)CCS)C(O)=O

> <INCHI>
InChI=1S/C12H23N3O4S/c1-8(16)14-6-3-2-4-10(12(18)19)15-11(17)9(13)5-7-20/h9-10,20H,2-7,13H2,1H3,(H,14,16)(H,15,17)(H,18,19)/t9-,10-/m0/s1

> <INCHIKEY>
RYCQZSZGQMTRND-UWVGGRQHSA-N

> <PUBMED_CITATION>
15131313

$$$$

Marvin  04131116012D          

 25 24  0  0  1  0            999 V2000
   12.4372  -44.3273    0.0000 C   0  0  0  0  0  0  0  0  0  0  0  0
   13.1517  -44.7398    0.0000 O   0  0  0  0  0  0  0  0  0  0  0  0
   12.4373  -43.5023    0.0000 O   0  0  0  0  0  0  0  0  0  0  0  0
   11.7227  -44.7398    0.0000 C   0  0  1  0  0  0  0  0  0  0  0  0
   11.0083  -44.3273    0.0000 N   0  0  0  0  0  0  0  0  0  0  0  0
   11.7227  -45.5648    0.0000 C   0  0  0  0  0  0  0  0  0  0  0  0
   12.4372  -45.9774    0.0000 C   0  0  0  0  0  0  0  0  0  0  0  0
   10.2938  -44.7398    0.0000 C   0  0  0  0  0  0  0  0  0  0  0  0
   10.2938  -45.5649    0.0000 O   0  0  0  0  0  0  0  0  0  0  0  0
    9.5793  -44.3273    0.0000 C   0  0  1  0  0  0  0  0  0  0  0  0
    9.5793  -43.5023    0.0000 N   0  0  0  0  0  0  0  0  0  0  0  0
    6.0068  -44.7398    0.0000 N   0  0  0  0  0  0  0  0  0  0  0  0
    6.7213  -44.3273    0.0000 C   0  0  0  0  0  0  0  0  0  0  0  0
    8.8648  -44.7398    0.0000 C   0  0  0  0  0  0  0  0  0  0  0  0
    7.4358  -44.7398    0.0000 C   0  0  0  0  0  0  0  0  0  0  0  0
    8.1503  -44.3273    0.0000 C   0  0  0  0  0  0  0  0  0  0  0  0
    5.2923  -44.3273    0.0000 C   0  0  0  0  0  0  0  0  0  0  0  0
    4.5779  -44.7398    0.0000 C   0  0  1  0  0  0  0  0  0  0  0  0
    5.2923  -43.5023    0.0000 O   0  0  0  0  0  0  0  0  0  0  0  0
    4.5779  -45.5648    0.0000 N   0  0  0  0  0  0  0  0  0  0  0  0
    3.1489  -44.7398    0.0000 C   0  0  0  0  0  0  0  0  0  0  0  0
    3.8634  -44.3273    0.0000 C   0  0  0  0  0  0  0  0  0  0  0  0
    2.4345  -44.3273    0.0000 S   0  0  0  0  0  0  0  0  0  0  0  0
   12.4372  -46.8024    0.0000 C   0  0  0  0  0  0  0  0  0  0  0  0
   13.1517  -45.5649    0.0000 C   0  0  0  0  0  0  0  0  0  0  0  0
  1  2  1  0  0  0  0
  1  3  2  0  0  0  0
  1  4  1  0  0  0  0
  4  5  1  6  0  0  0
  4  6  1  0  0  0  0
  6  7  1  0  0  0  0
  8  9  2  0  0  0  0
  8 10  1  0  0  0  0
 10 11  1  6  0  0  0
 10 14  1  0  0  0  0
 12 13  1  0  0  0  0
 13 15  1  0  0  0  0
 14 16  1  0  0  0  0
 15 16  1  0  0  0  0
  5  8  1  0  0  0  0
 17 18  1  0  0  0  0
 17 19  2  0  0  0  0
 18 20  1  1  0  0  0
 18 22  1  0  0  0  0
 21 22  1  0  0  0  0
 12 17  1  0  0  0  0
 21 23  1  0  0  0  0
  7 24  1  0  0  0  0
  7 25  1  0  0  0  0
M  END
> <ID>
CHEBI:61877

> <NAME>
N(6)-(L-homocysteinyl)-L-lysyl-L-leucine

> <DEFINITION>
A tripeptide formed between L-Hcy, L-Lys and L-Leu in a linear sequence, with the peptide linkage between Hcy and Lys being from the carboxy group of the Hcy to the ε-nitrogen of the lysine.

> <STAR>
3

> <SYNONYM>
Nepsilon-Hcy-LysLeu; Nepsilon-Hcy-Lys-Leu

> <IUPAC_NAME>
N(6)-(L-homocysteinyl)-L-lysyl-L-leucine

> <FORMULA>
C16H32N4O4S

> <MASS>
376.51500

> <MONOISOTOPIC_MASS>
376.21443

> <CHARGE>
0

> <SMILES>
CC(C)C[C@H](NC(=O)[C@@H](N)CCCCNC(=O)[C@@H](N)CCS)C(O)=O

> <INCHI>
InChI=1S/C16H32N4O4S/c1-10(2)9-13(16(23)24)20-15(22)11(17)5-3-4-7-19-14(21)12(18)6-8-25/h10-13,25H,3-9,17-18H2,1-2H3,(H,19,21)(H,20,22)(H,23,24)/t11-,12-,13-/m0/s1

> <INCHIKEY>
DERCUCLGUUXYQF-AVGNSLFASA-N

> <PUBMED_CITATION>
15131313

$$$$

Marvin  04281112452D          

 45 48  0  0  1  0            999 V2000
    8.2998   -8.0840    0.0000 C   0  0  2  0  0  0  0  0  0  0  0  0
    8.2998   -8.9090    0.0000 C   0  0  1  0  0  0  0  0  0  0  0  0
    7.5852   -7.6715    0.0000 O   0  0  0  0  0  0  0  0  0  0  0  0
    7.5852   -9.3215    0.0000 C   0  0  2  0  0  0  0  0  0  0  0  0
    6.8708   -8.0840    0.0000 C   0  0  1  0  0  0  0  0  0  0  0  0
    6.8708   -8.9090    0.0000 C   0  0  1  0  0  0  0  0  0  0  0  0
    9.0141   -7.6715    0.0000 O   0  0  0  0  0  0  0  0  0  0  0  0
    9.0141   -9.3215    0.0000 O   0  0  0  0  0  0  0  0  0  0  0  0
    7.5852  -10.1464    0.0000 O   0  0  0  0  0  0  0  0  0  0  0  0
    6.1563   -9.3215    0.0000 O   0  0  0  0  0  0  0  0  0  0  0  0
    6.1563   -7.6715    0.0000 C   0  0  0  0  0  0  0  0  0  0  0  0
    5.4418   -8.0840    0.0000 O   0  0  0  0  0  0  0  0  0  0  0  0
   11.1576   -6.4340    0.0000 C   0  0  2  0  0  0  0  0  0  0  0  0
   11.1576   -7.2590    0.0000 C   0  0  1  0  0  0  0  0  0  0  0  0
   10.4430   -6.0215    0.0000 O   0  0  0  0  0  0  0  0  0  0  0  0
   10.4430   -7.6715    0.0000 C   0  0  2  0  0  0  0  0  0  0  0  0
    9.7286   -6.4340    0.0000 C   0  0  1  0  0  0  0  0  0  0  0  0
    9.7286   -7.2590    0.0000 C   0  0  1  0  0  0  0  0  0  0  0  0
   11.8720   -6.0215    0.0000 O   0  0  0  0  0  0  0  0  0  0  0  0
   11.8720   -7.6715    0.0000 O   0  0  0  0  0  0  0  0  0  0  0  0
   10.4430   -8.4965    0.0000 O   0  0  0  0  0  0  0  0  0  0  0  0
    9.0141   -6.0215    0.0000 C   0  0  0  0  0  0  0  0  0  0  0  0
    8.2998   -6.4340    0.0000 O   0  0  0  0  0  0  0  0  0  0  0  0
   14.0153   -4.7841    0.0000 C   0  0  2  0  0  0  0  0  0  0  0  0
   14.0153   -5.6091    0.0000 C   0  0  1  0  0  0  0  0  0  0  0  0
   13.3009   -4.3715    0.0000 O   0  0  0  0  0  0  0  0  0  0  0  0
   13.3009   -6.0215    0.0000 C   0  0  2  0  0  0  0  0  0  0  0  0
   12.5864   -4.7841    0.0000 C   0  0  1  0  0  0  0  0  0  0  0  0
   12.5864   -5.6091    0.0000 C   0  0  1  0  0  0  0  0  0  0  0  0
   14.7298   -4.3715    0.0000 O   0  0  0  0  0  0  0  0  0  0  0  0
   14.7298   -6.0215    0.0000 O   0  0  0  0  0  0  0  0  0  0  0  0
   13.3009   -6.8465    0.0000 O   0  0  0  0  0  0  0  0  0  0  0  0
   11.8720   -4.3715    0.0000 C   0  0  0  0  0  0  0  0  0  0  0  0
   11.1574   -4.7841    0.0000 O   0  0  0  0  0  0  0  0  0  0  0  0
   16.8731   -3.1341    0.0000 C   0  0  2  0  0  0  0  0  0  0  0  0
   16.8731   -3.9590    0.0000 C   0  0  1  0  0  0  0  0  0  0  0  0
   16.1587   -2.7216    0.0000 O   0  0  0  0  0  0  0  0  0  0  0  0
   16.1587   -4.3715    0.0000 C   0  0  2  0  0  0  0  0  0  0  0  0
   15.4443   -3.1341    0.0000 C   0  0  1  0  0  0  0  0  0  0  0  0
   15.4443   -3.9590    0.0000 C   0  0  1  0  0  0  0  0  0  0  0  0
   17.5876   -2.7216    0.0000 O   0  0  0  0  0  0  0  0  0  0  0  0
   17.5876   -4.3715    0.0000 O   0  0  0  0  0  0  0  0  0  0  0  0
   16.1587   -5.1966    0.0000 O   0  0  0  0  0  0  0  0  0  0  0  0
   14.7298   -2.7216    0.0000 C   0  0  0  0  0  0  0  0  0  0  0  0
   14.0153   -3.1341    0.0000 O   0  0  0  0  0  0  0  0  0  0  0  0
  1  2  1  0  0  0  0
  1  3  1  0  0  0  0
  2  4  1  0  0  0  0
  3  5  1  0  0  0  0
  4  6  1  0  0  0  0
  5  6  1  0  0  0  0
  1  7  1  6  0  0  0
  2  8  1  6  0  0  0
  4  9  1  1  0  0  0
  6 10  1  6  0  0  0
  5 11  1  1  0  0  0
 12 11  1  0  0  0  0
 13 14  1  0  0  0  0
 13 15  1  0  0  0  0
 14 16  1  0  0  0  0
 15 17  1  0  0  0  0
 16 18  1  0  0  0  0
 17 18  1  0  0  0  0
 13 19  1  6  0  0  0
 14 20  1  6  0  0  0
 16 21  1  1  0  0  0
 18  7  1  6  0  0  0
 17 22  1  1  0  0  0
 23 22  1  0  0  0  0
 24 25  1  0  0  0  0
 24 26  1  0  0  0  0
 25 27  1  0  0  0  0
 26 28  1  0  0  0  0
 27 29  1  0  0  0  0
 28 29  1  0  0  0  0
 24 30  1  6  0  0  0
 25 31  1  6  0  0  0
 27 32  1  1  0  0  0
 29 19  1  6  0  0  0
 28 33  1  1  0  0  0
 34 33  1  0  0  0  0
 35 36  1  0  0  0  0
 35 37  1  0  0  0  0
 36 38  1  0  0  0  0
 37 39  1  0  0  0  0
 38 40  1  0  0  0  0
 39 40  1  0  0  0  0
 35 41  1  6  0  0  0
 36 42  1  6  0  0  0
 38 43  1  1  0  0  0
 40 30  1  6  0  0  0
 39 44  1  1  0  0  0
 45 44  1  0  0  0  0
M  END
> <ID>
CHEBI:61988

> <NAME>
alpha-maltotetraose

> <DEFINITION>
A maltotetraose tetrasaccharide in which the glucose residue at the reducing end is in the pyranose ring form and has α configuration at the anomeric carbon atom.

> <STAR>
3

> <SYNONYM>
maltotetraose; cellotetraose; alpha-maltotetraose; alpha-D-glucosyl-(1->4)-alpha-D-glucosyl-(1->4)-alpha-D-glucosyl-(1->4)-alpha-D-glucose; alpha-D-Glcp-(1->4)-alpha-D-Glcp-(1->4)-alpha-D-Glcp-(1->4)-alpha-D-Glcp; alpha-D-Glc-(1->4)-alpha-D-Glc-(1->4)-alpha-D-Glc-(1->4)-alpha-D-Glc

> <IUPAC_NAME>
alpha-D-glucopyranosyl-(1->4)-alpha-D-glucopyranosyl-(1->4)-alpha-D-glucopyranosyl-(1->4)-alpha-D-glucopyranose

> <FORMULA>
C24H42O21

> <MASS>
666.57770

> <MONOISOTOPIC_MASS>
666.22186

> <CHARGE>
0

> <SMILES>
OC[C@H]1O[C@H](O[C@@H]2[C@@H](CO)O[C@H](O[C@@H]3[C@@H](CO)O[C@H](O[C@@H]4[C@@H](CO)O[C@H](O)[C@H](O)[C@H]4O)[C@H](O)[C@H]3O)[C@H](O)[C@H]2O)[C@H](O)[C@@H](O)[C@@H]1O

> <INCHI>
InChI=1S/C24H42O21/c25-1-5-9(29)10(30)15(35)22(40-5)44-19-7(3-27)42-24(17(37)12(19)32)45-20-8(4-28)41-23(16(36)13(20)33)43-18-6(2-26)39-21(38)14(34)11(18)31/h5-38H,1-4H2/t5-,6-,7-,8-,9-,10+,11-,12-,13-,14-,15-,16-,17-,18-,19-,20-,21+,22-,23-,24-/m1/s1

> <INCHIKEY>
LUEWUZLMQUOBSB-ZLBHSGTGSA-N

> <REAXYS_REGISTRY_NUMBER>
4849389

> <PUBMED_CITATION>
25766777

$$$$

Marvin  05051114162D          

 16 17  0  0  0  0            999 V2000
    9.7498   -2.7439    0.0000 N   0  0  0  0  0  0  0  0  0  0  0  0
    9.7498   -3.5824    0.0000 C   0  0  0  0  0  0  0  0  0  0  0  0
   10.4639   -4.0171    0.0000 N   0  0  0  0  0  0  0  0  0  0  0  0
   11.1472   -3.5824    0.0000 C   0  0  0  0  0  0  0  0  0  0  0  0
   11.1472   -2.7439    0.0000 C   0  0  0  0  0  0  0  0  0  0  0  0
   10.4639   -2.3092    0.0000 C   0  0  0  0  0  0  0  0  0  0  0  0
   11.9234   -2.4645    0.0000 N   0  0  0  0  0  0  0  0  0  0  0  0
   12.3891   -3.1786    0.0000 C   0  0  0  0  0  0  0  0  0  0  0  0
   11.9234   -3.8617    0.0000 N   0  0  0  0  0  0  0  0  0  0  0  0
   10.4639   -1.4398    0.0000 O   0  0  0  0  0  0  0  0  0  0  0  0
    9.0357   -4.0171    0.0000 N   0  0  0  0  0  0  0  0  0  0  0  0
    8.3212   -3.6046    0.0000 C   0  0  0  0  0  0  0  0  0  0  0  0
    7.6068   -4.0171    0.0000 C   0  0  0  0  0  0  0  0  0  0  0  0
    8.3212   -2.7796    0.0000 C   0  0  0  0  0  0  0  0  0  0  0  0
    6.8923   -3.6046    0.0000 O   0  0  0  0  0  0  0  0  0  0  0  0
    7.6068   -4.8420    0.0000 O   0  0  0  0  0  0  0  0  0  0  0  0
  2  1  1  0  0  0  0
  6  1  1  0  0  0  0
  3  2  2  0  0  0  0
 11  2  1  0  0  0  0
  4  3  1  0  0  0  0
  5  6  1  0  0  0  0
 10  6  2  0  0  0  0
  4  5  2  0  0  0  0
  7  5  1  0  0  0  0
  9  4  1  0  0  0  0
  8  9  1  0  0  0  0
  7  8  2  0  0  0  0
 11 12  1  0  0  0  0
 12 13  1  0  0  0  0
 12 14  1  0  0  0  0
 13 15  1  0  0  0  0
 13 16  2  0  0  0  0
M  END
> <ID>
CHEBI:62032

> <NAME>
N(2)-carboxyethylguanine

> <DEFINITION>
An alanine derivative consisting of alanine having a 6-oxo-6,9-dihydro-1H-purin-2-yl group attached to the amino function.

> <STAR>
3

> <SYNONYM>
N(2)-(1-carboxyethyl)guanine; CEguanine

> <IUPAC_NAME>
N-(6-oxo-6,9-dihydro-1H-purin-2-yl)alanine

> <FORMULA>
C8H9N5O3

> <MASS>
223.18880

> <MONOISOTOPIC_MASS>
223.07054

> <CHARGE>
0

> <SMILES>
CC(Nc1nc2[nH]cnc2c(=O)[nH]1)C(O)=O

> <INCHI>
InChI=1S/C8H9N5O3/c1-3(7(15)16)11-8-12-5-4(6(14)13-8)9-2-10-5/h2-3H,1H3,(H,15,16)(H3,9,10,11,12,13,14)

> <INCHIKEY>
YCCGSWHBNBAHIT-UHFFFAOYSA-N

> <PUBMED_CITATION>
15487900; 16598809; 9846899

$$$$

Marvin  05051114362D          

 24 26  0  0  1  0            999 V2000
   18.2201   -4.8077    0.0000 N   0  0  0  0  0  0  0  0  0  0  0  0
   18.2201   -5.6854    0.0000 C   0  0  0  0  0  0  0  0  0  0  0  0
   18.9344   -6.1201    0.0000 N   0  0  0  0  0  0  0  0  0  0  0  0
   19.6177   -5.6854    0.0000 C   0  0  0  0  0  0  0  0  0  0  0  0
   19.6177   -4.8468    0.0000 C   0  0  0  0  0  0  0  0  0  0  0  0
   18.9344   -4.4121    0.0000 C   0  0  0  0  0  0  0  0  0  0  0  0
   20.3939   -4.5674    0.0000 N   0  0  0  0  0  0  0  0  0  0  0  0
   20.8597   -5.2817    0.0000 C   0  0  0  0  0  0  0  0  0  0  0  0
   20.3939   -5.9648    0.0000 N   0  0  0  0  0  0  0  0  0  0  0  0
   20.7978   -8.0940    0.0000 C   0  0  1  0  0  0  0  0  0  0  0  0
   21.0461   -7.2865    0.0000 C   0  0  2  0  0  0  0  0  0  0  0  0
   20.3940   -6.7898    0.0000 C   0  0  1  0  0  0  0  0  0  0  0  0
   19.7417   -7.2866    0.0000 O   0  0  0  0  0  0  0  0  0  0  0  0
   19.9902   -8.0940    0.0000 C   0  0  2  0  0  0  0  0  0  0  0  0
   19.4003   -8.6532    0.0000 C   0  0  0  0  0  0  0  0  0  0  0  0
   19.6798   -9.5538    0.0000 O   0  0  0  0  0  0  0  0  0  0  0  0
   21.2636   -8.8083    0.0000 O   0  0  0  0  0  0  0  0  0  0  0  0
   18.9344   -3.5426    0.0000 O   0  0  0  0  0  0  0  0  0  0  0  0
   17.5060   -6.1201    0.0000 N   0  0  0  0  0  0  0  0  0  0  0  0
   16.7913   -5.7076    0.0000 C   0  0  0  0  0  0  0  0  0  0  0  0
   16.0769   -6.1201    0.0000 C   0  0  0  0  0  0  0  0  0  0  0  0
   15.3624   -5.7076    0.0000 O   0  0  0  0  0  0  0  0  0  0  0  0
   16.0769   -6.9451    0.0000 O   0  0  0  0  0  0  0  0  0  0  0  0
   21.8316   -7.0342    0.0000 O   0  0  0  0  0  0  0  0  0  0  0  0
  2  1  1  0  0  0  0
  6  1  1  0  0  0  0
  3  2  2  0  0  0  0
 19  2  1  0  0  0  0
  4  3  1  0  0  0  0
  5  6  1  0  0  0  0
 18  6  2  0  0  0  0
  4  5  2  0  0  0  0
  7  5  1  0  0  0  0
  9  4  1  0  0  0  0
  8  9  1  0  0  0  0
  7  8  2  0  0  0  0
 11 10  1  0  0  0  0
 14 10  1  0  0  0  0
 10 17  1  6  0  0  0
 12 11  1  0  0  0  0
 13 12  1  0  0  0  0
 14 13  1  0  0  0  0
 14 15  1  1  0  0  0
 16 15  1  0  0  0  0
 19 20  1  0  0  0  0
 20 21  1  0  0  0  0
 21 22  1  0  0  0  0
 21 23  2  0  0  0  0
 12  9  1  1  0  0  0
 11 24  1  6  0  0  0
M  END
> <ID>
CHEBI:62034

> <NAME>
N(2)-carboxymethylguanosine

> <DEFINITION>
A guanosine derivative having a carboxymethyl group attached at the N2-position.

> <STAR>
3

> <SYNONYM>
N-(9-beta-D-ribofuranosyl-6-oxo-6,9-dihydro-1H-purin-2-yl)-glycine; CMG

> <FORMULA>
C12H15N5O7

> <MASS>
341.27680

> <MONOISOTOPIC_MASS>
341.09715

> <CHARGE>
0

> <SMILES>
OC[C@H]1O[C@H]([C@H](O)[C@@H]1O)n1cnc2c1nc(NCC(O)=O)[nH]c2=O

> <INCHI>
InChI=1S/C12H15N5O7/c18-2-4-7(21)8(22)11(24-4)17-3-14-6-9(17)15-12(16-10(6)23)13-1-5(19)20/h3-4,7-8,11,18,21-22H,1-2H2,(H,19,20)(H2,13,15,16,23)/t4-,7-,8-,11-/m1/s1

> <INCHIKEY>
YSAOPASVXKYEFD-TZQXKBMNSA-N

> <REAXYS_REGISTRY_NUMBER>
1181843

> <PUBMED_CITATION>
15487900

$$$$

Marvin  05051115202D          

 24 26  0  0  1  0            999 V2000
   17.7823   -2.4561    0.0000 N   0  0  0  0  0  0  0  0  0  0  0  0
   17.7823   -3.3338    0.0000 C   0  0  0  0  0  0  0  0  0  0  0  0
   18.4965   -3.7685    0.0000 N   0  0  0  0  0  0  0  0  0  0  0  0
   19.1799   -3.3338    0.0000 C   0  0  0  0  0  0  0  0  0  0  0  0
   19.1799   -2.4952    0.0000 C   0  0  0  0  0  0  0  0  0  0  0  0
   18.4965   -2.0605    0.0000 C   0  0  0  0  0  0  0  0  0  0  0  0
   19.9560   -2.2158    0.0000 N   0  0  0  0  0  0  0  0  0  0  0  0
   20.4218   -2.9301    0.0000 C   0  0  0  0  0  0  0  0  0  0  0  0
   19.9560   -3.6132    0.0000 N   0  0  0  0  0  0  0  0  0  0  0  0
   20.3598   -5.7424    0.0000 C   0  0  1  0  0  0  0  0  0  0  0  0
   20.6081   -4.9349    0.0000 C   0  0  0  0  0  0  0  0  0  0  0  0
   19.9561   -4.4382    0.0000 C   0  0  1  0  0  0  0  0  0  0  0  0
   19.3039   -4.9350    0.0000 O   0  0  0  0  0  0  0  0  0  0  0  0
   19.5524   -5.7424    0.0000 C   0  0  2  0  0  0  0  0  0  0  0  0
   18.9624   -6.3016    0.0000 C   0  0  0  0  0  0  0  0  0  0  0  0
   19.2420   -7.2021    0.0000 O   0  0  0  0  0  0  0  0  0  0  0  0
   20.8257   -6.4567    0.0000 O   0  0  0  0  0  0  0  0  0  0  0  0
   18.4965   -1.1911    0.0000 O   0  0  0  0  0  0  0  0  0  0  0  0
   17.0681   -3.7685    0.0000 N   0  0  0  0  0  0  0  0  0  0  0  0
   16.3535   -3.3560    0.0000 C   0  0  1  0  0  0  0  0  0  0  0  0
   15.6391   -3.7685    0.0000 C   0  0  0  0  0  0  0  0  0  0  0  0
   16.3535   -2.5309    0.0000 C   0  0  0  0  0  0  0  0  0  0  0  0
   14.9246   -3.3560    0.0000 O   0  0  0  0  0  0  0  0  0  0  0  0
   15.6391   -4.5935    0.0000 O   0  0  0  0  0  0  0  0  0  0  0  0
  2  1  1  0  0  0  0
  6  1  1  0  0  0  0
  3  2  2  0  0  0  0
 19  2  1  0  0  0  0
  4  3  1  0  0  0  0
  5  6  1  0  0  0  0
 18  6  2  0  0  0  0
  4  5  2  0  0  0  0
  7  5  1  0  0  0  0
  9  4  1  0  0  0  0
  8  9  1  0  0  0  0
  7  8  2  0  0  0  0
 11 10  1  0  0  0  0
 14 10  1  0  0  0  0
 10 17  1  6  0  0  0
 12 11  1  0  0  0  0
 13 12  1  0  0  0  0
 14 13  1  0  0  0  0
 14 15  1  1  0  0  0
 16 15  1  0  0  0  0
 19 20  1  0  0  0  0
 20 21  1  0  0  0  0
 20 22  1  1  0  0  0
 21 23  1  0  0  0  0
 21 24  2  0  0  0  0
 12  9  1  1  0  0  0
M  END
> <ID>
CHEBI:62035

> <NAME>
(R)-N(2)-carboxyethyl-2'-deoxyguanosine

> <DEFINITION>
An N2-carboxyethyl-2'-deoxyguanosine where the N2-carboxyethyl group has (R)-configuration.

> <STAR>
3

> <SYNONYM>
N(2)-(R)-carboxyethyl-2'-deoxyguanosine; (R)-N(2)-1-(carboxyethyl)-2'-deoxyguanosine

> <FORMULA>
C13H17N5O6

> <MASS>
339.30400

> <MONOISOTOPIC_MASS>
339.11788

> <CHARGE>
0

> <SMILES>
C[C@@H](Nc1nc2n(cnc2c(=O)[nH]1)[C@H]1C[C@H](O)[C@@H](CO)O1)C(O)=O

> <INCHI>
InChI=1S/C13H17N5O6/c1-5(12(22)23)15-13-16-10-9(11(21)17-13)14-4-18(10)8-2-6(20)7(3-19)24-8/h4-8,19-20H,2-3H2,1H3,(H,22,23)(H2,15,16,17,21)/t5-,6+,7-,8-/m1/s1

> <INCHIKEY>
MXNKUBJIXVVNPY-ULAWRXDQSA-N

> <PUBMED_CITATION>
15487900

$$$$

Marvin  05051115452D          

 24 26  0  0  1  0            999 V2000
    9.6572   -3.1420    0.0000 N   0  0  0  0  0  0  0  0  0  0  0  0
    9.6572   -4.0197    0.0000 C   0  0  0  0  0  0  0  0  0  0  0  0
   10.3714   -4.4544    0.0000 N   0  0  0  0  0  0  0  0  0  0  0  0
   11.0549   -4.0197    0.0000 C   0  0  0  0  0  0  0  0  0  0  0  0
   11.0549   -3.1811    0.0000 C   0  0  0  0  0  0  0  0  0  0  0  0
   10.3714   -2.7464    0.0000 C   0  0  0  0  0  0  0  0  0  0  0  0
   11.8309   -2.9017    0.0000 N   0  0  0  0  0  0  0  0  0  0  0  0
   12.2967   -3.6160    0.0000 C   0  0  0  0  0  0  0  0  0  0  0  0
   11.8309   -4.2992    0.0000 N   0  0  0  0  0  0  0  0  0  0  0  0
   12.2348   -6.4284    0.0000 C   0  0  1  0  0  0  0  0  0  0  0  0
   12.4831   -5.6209    0.0000 C   0  0  0  0  0  0  0  0  0  0  0  0
   11.8311   -5.1242    0.0000 C   0  0  1  0  0  0  0  0  0  0  0  0
   11.1789   -5.6210    0.0000 O   0  0  0  0  0  0  0  0  0  0  0  0
   11.4274   -6.4284    0.0000 C   0  0  2  0  0  0  0  0  0  0  0  0
   10.8373   -6.9876    0.0000 C   0  0  0  0  0  0  0  0  0  0  0  0
   11.1169   -7.8882    0.0000 O   0  0  0  0  0  0  0  0  0  0  0  0
   12.7007   -7.1427    0.0000 O   0  0  0  0  0  0  0  0  0  0  0  0
   10.3714   -1.8770    0.0000 O   0  0  0  0  0  0  0  0  0  0  0  0
    8.9430   -4.4544    0.0000 N   0  0  0  0  0  0  0  0  0  0  0  0
    8.2283   -4.0419    0.0000 C   0  0  2  0  0  0  0  0  0  0  0  0
    7.5139   -4.4544    0.0000 C   0  0  0  0  0  0  0  0  0  0  0  0
    8.2283   -3.2168    0.0000 C   0  0  0  0  0  0  0  0  0  0  0  0
    6.7994   -4.0419    0.0000 O   0  0  0  0  0  0  0  0  0  0  0  0
    7.5139   -5.2795    0.0000 O   0  0  0  0  0  0  0  0  0  0  0  0
  2  1  1  0  0  0  0
  6  1  1  0  0  0  0
  3  2  2  0  0  0  0
 19  2  1  0  0  0  0
  4  3  1  0  0  0  0
  5  6  1  0  0  0  0
 18  6  2  0  0  0  0
  4  5  2  0  0  0  0
  7  5  1  0  0  0  0
  9  4  1  0  0  0  0
  8  9  1  0  0  0  0
  7  8  2  0  0  0  0
 11 10  1  0  0  0  0
 14 10  1  0  0  0  0
 10 17  1  6  0  0  0
 12 11  1  0  0  0  0
 13 12  1  0  0  0  0
 14 13  1  0  0  0  0
 14 15  1  1  0  0  0
 16 15  1  0  0  0  0
 19 20  1  0  0  0  0
 20 21  1  0  0  0  0
 20 22  1  6  0  0  0
 21 23  1  0  0  0  0
 21 24  2  0  0  0  0
 12  9  1  1  0  0  0
M  END
> <ID>
CHEBI:62036

> <NAME>
(S)-N(2)-carboxyethyl-2'-deoxyguanosine

> <DEFINITION>
An N2-carboxyethyl-2'-deoxyguanosine where the N2-carboxyethyl group has (S)-configuration.

> <STAR>
3

> <SYNONYM>
N(2)-(S)-carboxyethyl-2'-deoxyguanosine; (S)-N(2)-(1-carboxyethyl)-2'-deoxyguanosine

> <FORMULA>
C13H17N5O6

> <MASS>
339.30400

> <MONOISOTOPIC_MASS>
339.11788

> <CHARGE>
0

> <SMILES>
C[C@H](Nc1nc2n(cnc2c(=O)[nH]1)[C@H]1C[C@H](O)[C@@H](CO)O1)C(O)=O

> <INCHI>
InChI=1S/C13H17N5O6/c1-5(12(22)23)15-13-16-10-9(11(21)17-13)14-4-18(10)8-2-6(20)7(3-19)24-8/h4-8,19-20H,2-3H2,1H3,(H,22,23)(H2,15,16,17,21)/t5-,6-,7+,8+/m0/s1

> <INCHIKEY>
MXNKUBJIXVVNPY-RULNZFCNSA-N

> <PUBMED_CITATION>
15487900

$$$$

Marvin  05051115472D          

 23 24  0  0  1  0            999 V2000
   20.5356   -6.8957    0.0000 C   0  0  1  0  0  0  0  0  0  0  0  0
   21.2500   -7.3082    0.0000 C   0  0  2  0  0  0  0  0  0  0  0  0
   19.8210   -7.3083    0.0000 O   0  0  0  0  0  0  0  0  0  0  0  0
   21.2500   -8.1333    0.0000 C   0  0  2  0  0  0  0  0  0  0  0  0
   19.8211   -8.1333    0.0000 C   0  0  1  0  0  0  0  0  0  0  0  0
   20.5356   -8.5458    0.0000 C   0  0  1  0  0  0  0  0  0  0  0  0
   20.5355   -6.0707    0.0000 O   0  0  0  0  0  0  0  0  0  0  0  0
   21.9645   -6.8957    0.0000 O   0  0  0  0  0  0  0  0  0  0  0  0
   21.9645   -8.5458    0.0000 O   0  0  0  0  0  0  0  0  0  0  0  0
   20.5356   -9.3708    0.0000 O   0  0  0  0  0  0  0  0  0  0  0  0
   19.1066   -8.5458    0.0000 C   0  0  0  0  0  0  0  0  0  0  0  0
   19.1066   -9.3708    0.0000 O   0  0  0  0  0  0  0  0  0  0  0  0
   19.8210   -4.8332    0.0000 C   0  0  0  0  0  0  0  0  0  0  0  0
   19.8210   -5.6582    0.0000 C   0  0  2  0  0  0  0  0  0  0  0  0
   19.1065   -4.4207    0.0000 O   0  0  0  0  0  0  0  0  0  0  0  0
   19.1065   -6.0707    0.0000 C   0  0  2  0  0  0  0  0  0  0  0  0
   18.3921   -4.8332    0.0000 C   0  0  1  0  0  0  0  0  0  0  0  0
   18.3921   -5.6582    0.0000 C   0  0  1  0  0  0  0  0  0  0  0  0
   20.5355   -4.4207    0.0000 O   0  0  0  0  0  0  0  0  0  0  0  0
   19.1065   -6.8957    0.0000 O   0  0  0  0  0  0  0  0  0  0  0  0
   17.6776   -6.0707    0.0000 O   0  0  0  0  0  0  0  0  0  0  0  0
   17.6776   -4.4207    0.0000 C   0  0  0  0  0  0  0  0  0  0  0  0
   16.9631   -4.8332    0.0000 O   0  0  0  0  0  0  0  0  0  0  0  0
  1  2  1  0  0  0  0
  1  3  1  0  0  0  0
  2  4  1  0  0  0  0
  3  5  1  0  0  0  0
  4  6  1  0  0  0  0
  5  6  1  0  0  0  0
  1  7  1  1  0  0  0
  2  8  1  1  0  0  0
  4  9  1  1  0  0  0
  6 10  1  6  0  0  0
  5 11  1  1  0  0  0
 12 11  1  0  0  0  0
 13 14  1  0  0  0  0
 13 15  1  0  0  0  0
 14 16  1  0  0  0  0
 15 17  1  0  0  0  0
 16 18  1  0  0  0  0
 17 18  1  0  0  0  0
 13 19  1  0  0  0  0
 14  7  1  1  0  0  0
 16 20  1  1  0  0  0
 18 21  1  6  0  0  0
 17 22  1  1  0  0  0
 23 22  1  0  0  0  0
M  END
> <ID>
CHEBI:62037

> <NAME>
beta-D-Manp-(1->2)-D-Manp

> <DEFINITION>
A glycosylmannose consisting of two D-mannopyranose residues joined via a β-(1→2)-linkage.

> <STAR>
3

> <SYNONYM>
beta-D-Manp-(1-2)-D-Manp; beta-D-mannopyranosyl-(1->2)-D-mannopyranose; beta-D-Man-(1->2)-D-Man

> <IUPAC_NAME>
2-O-beta-D-mannopyranosyl-D-mannopyranose

> <FORMULA>
C12H22O11

> <MASS>
342.29650

> <MONOISOTOPIC_MASS>
342.11621

> <CHARGE>
0

> <SMILES>
OC[C@H]1OC(O)[C@@H](O[C@@H]2O[C@H](CO)[C@@H](O)[C@H](O)[C@@H]2O)[C@@H](O)[C@@H]1O

> <INCHI>
InChI=1S/C12H22O11/c13-1-3-6(16)8(18)10(11(20)21-3)23-12-9(19)7(17)5(15)4(2-14)22-12/h3-20H,1-2H2/t3-,4-,5-,6-,7+,8+,9+,10+,11?,12+/m1/s1

> <INCHIKEY>
HIWPGCMGAMJNRG-FZFXURTHSA-N

> <REAXYS_REGISTRY_NUMBER>
1688179

> <PUBMED_CITATION>
9477251

$$$$

Marvin  05051115572D          

 25 27  0  0  1  0            999 V2000
    9.6570   -3.1419    0.0000 N   0  0  0  0  0  0  0  0  0  0  0  0
    9.6570   -4.0196    0.0000 C   0  0  0  0  0  0  0  0  0  0  0  0
   10.3712   -4.4543    0.0000 N   0  0  0  0  0  0  0  0  0  0  0  0
   11.0546   -4.0196    0.0000 C   0  0  0  0  0  0  0  0  0  0  0  0
   11.0546   -3.1810    0.0000 C   0  0  0  0  0  0  0  0  0  0  0  0
   10.3712   -2.7463    0.0000 C   0  0  0  0  0  0  0  0  0  0  0  0
   11.8307   -2.9016    0.0000 N   0  0  0  0  0  0  0  0  0  0  0  0
   12.2965   -3.6159    0.0000 C   0  0  0  0  0  0  0  0  0  0  0  0
   11.8307   -4.2991    0.0000 N   0  0  0  0  0  0  0  0  0  0  0  0
   12.2345   -6.4283    0.0000 C   0  0  1  0  0  0  0  0  0  0  0  0
   12.4828   -5.6208    0.0000 C   0  0  2  0  0  0  0  0  0  0  0  0
   11.8308   -5.1241    0.0000 C   0  0  1  0  0  0  0  0  0  0  0  0
   11.1786   -5.6209    0.0000 O   0  0  0  0  0  0  0  0  0  0  0  0
   11.4271   -6.4283    0.0000 C   0  0  2  0  0  0  0  0  0  0  0  0
   10.8371   -6.9875    0.0000 C   0  0  0  0  0  0  0  0  0  0  0  0
   11.1167   -7.8880    0.0000 O   0  0  0  0  0  0  0  0  0  0  0  0
   12.7004   -7.1426    0.0000 O   0  0  0  0  0  0  0  0  0  0  0  0
   10.3712   -1.8769    0.0000 O   0  0  0  0  0  0  0  0  0  0  0  0
    8.9428   -4.4543    0.0000 N   0  0  0  0  0  0  0  0  0  0  0  0
    8.2282   -4.0418    0.0000 C   0  0  1  0  0  0  0  0  0  0  0  0
    7.5138   -4.4543    0.0000 C   0  0  0  0  0  0  0  0  0  0  0  0
    8.2282   -3.2167    0.0000 C   0  0  0  0  0  0  0  0  0  0  0  0
    6.7992   -4.0418    0.0000 O   0  0  0  0  0  0  0  0  0  0  0  0
    7.5138   -5.2793    0.0000 O   0  0  0  0  0  0  0  0  0  0  0  0
   13.2683   -5.3685    0.0000 O   0  0  0  0  0  0  0  0  0  0  0  0
  2  1  1  0  0  0  0
  6  1  1  0  0  0  0
  3  2  2  0  0  0  0
 19  2  1  0  0  0  0
  4  3  1  0  0  0  0
  5  6  1  0  0  0  0
 18  6  2  0  0  0  0
  4  5  2  0  0  0  0
  7  5  1  0  0  0  0
  9  4  1  0  0  0  0
  8  9  1  0  0  0  0
  7  8  2  0  0  0  0
 11 10  1  0  0  0  0
 14 10  1  0  0  0  0
 10 17  1  6  0  0  0
 12 11  1  0  0  0  0
 13 12  1  0  0  0  0
 14 13  1  0  0  0  0
 14 15  1  1  0  0  0
 16 15  1  0  0  0  0
 19 20  1  0  0  0  0
 20 21  1  0  0  0  0
 20 22  1  1  0  0  0
 21 23  1  0  0  0  0
 21 24  2  0  0  0  0
 12  9  1  1  0  0  0
 11 25  1  6  0  0  0
M  END
> <ID>
CHEBI:62038

> <NAME>
(R)-N(2)-carboxyethylguanosine

> <DEFINITION>
An N2-carboxyethylguanosine where the N2-carboxyethyl group has (R)-configuration.

> <STAR>
3

> <SYNONYM>
N-(9-beta-D-ribofuranosyl-6-oxo-6,9-dihydro-1H-purin-2-yl)-D-alanine; (R)-N(2)-(1-carboxyethyl)guanosine

> <FORMULA>
C13H17N5O7

> <MASS>
355.30340

> <MONOISOTOPIC_MASS>
355.11280

> <CHARGE>
0

> <SMILES>
C[C@@H](Nc1nc2n(cnc2c(=O)[nH]1)[C@@H]1O[C@H](CO)[C@@H](O)[C@H]1O)C(O)=O

> <INCHI>
InChI=1S/C13H17N5O7/c1-4(12(23)24)15-13-16-9-6(10(22)17-13)14-3-18(9)11-8(21)7(20)5(2-19)25-11/h3-5,7-8,11,19-21H,2H2,1H3,(H,23,24)(H2,15,16,17,22)/t4-,5-,7-,8-,11-/m1/s1

> <INCHIKEY>
JYXKXKDWVWQIOH-QWEIRQIHSA-N

> <PUBMED_CITATION>
15487900

$$$$

Marvin  05051116022D          

 25 27  0  0  1  0            999 V2000
    9.6570   -3.1419    0.0000 N   0  0  0  0  0  0  0  0  0  0  0  0
    9.6570   -4.0196    0.0000 C   0  0  0  0  0  0  0  0  0  0  0  0
   10.3712   -4.4543    0.0000 N   0  0  0  0  0  0  0  0  0  0  0  0
   11.0546   -4.0196    0.0000 C   0  0  0  0  0  0  0  0  0  0  0  0
   11.0546   -3.1810    0.0000 C   0  0  0  0  0  0  0  0  0  0  0  0
   10.3712   -2.7463    0.0000 C   0  0  0  0  0  0  0  0  0  0  0  0
   11.8307   -2.9016    0.0000 N   0  0  0  0  0  0  0  0  0  0  0  0
   12.2965   -3.6159    0.0000 C   0  0  0  0  0  0  0  0  0  0  0  0
   11.8307   -4.2991    0.0000 N   0  0  0  0  0  0  0  0  0  0  0  0
   12.2345   -6.4283    0.0000 C   0  0  1  0  0  0  0  0  0  0  0  0
   12.4828   -5.6208    0.0000 C   0  0  2  0  0  0  0  0  0  0  0  0
   11.8308   -5.1241    0.0000 C   0  0  1  0  0  0  0  0  0  0  0  0
   11.1786   -5.6209    0.0000 O   0  0  0  0  0  0  0  0  0  0  0  0
   11.4271   -6.4283    0.0000 C   0  0  2  0  0  0  0  0  0  0  0  0
   10.8371   -6.9875    0.0000 C   0  0  0  0  0  0  0  0  0  0  0  0
   11.1167   -7.8880    0.0000 O   0  0  0  0  0  0  0  0  0  0  0  0
   12.7004   -7.1426    0.0000 O   0  0  0  0  0  0  0  0  0  0  0  0
   10.3712   -1.8769    0.0000 O   0  0  0  0  0  0  0  0  0  0  0  0
    8.9428   -4.4543    0.0000 N   0  0  0  0  0  0  0  0  0  0  0  0
    8.2282   -4.0418    0.0000 C   0  0  2  0  0  0  0  0  0  0  0  0
    7.5138   -4.4543    0.0000 C   0  0  0  0  0  0  0  0  0  0  0  0
    8.2282   -3.2167    0.0000 C   0  0  0  0  0  0  0  0  0  0  0  0
    6.7992   -4.0418    0.0000 O   0  0  0  0  0  0  0  0  0  0  0  0
    7.5138   -5.2793    0.0000 O   0  0  0  0  0  0  0  0  0  0  0  0
   13.2683   -5.3685    0.0000 O   0  0  0  0  0  0  0  0  0  0  0  0
  2  1  1  0  0  0  0
  6  1  1  0  0  0  0
  3  2  2  0  0  0  0
 19  2  1  0  0  0  0
  4  3  1  0  0  0  0
  5  6  1  0  0  0  0
 18  6  2  0  0  0  0
  4  5  2  0  0  0  0
  7  5  1  0  0  0  0
  9  4  1  0  0  0  0
  8  9  1  0  0  0  0
  7  8  2  0  0  0  0
 11 10  1  0  0  0  0
 14 10  1  0  0  0  0
 10 17  1  6  0  0  0
 12 11  1  0  0  0  0
 13 12  1  0  0  0  0
 14 13  1  0  0  0  0
 14 15  1  1  0  0  0
 16 15  1  0  0  0  0
 19 20  1  0  0  0  0
 20 21  1  0  0  0  0
 20 22  1  6  0  0  0
 21 23  1  0  0  0  0
 21 24  2  0  0  0  0
 12  9  1  1  0  0  0
 11 25  1  6  0  0  0
M  END
> <ID>
CHEBI:62039

> <NAME>
(S)-N(2)-carboxyethylguanosine

> <DEFINITION>
An N2-carboxyethylguanosine where the N2-carboxyethyl group has (S)-configuration.

> <STAR>
3

> <SYNONYM>
N-(9-beta-D-ribofuranosyl-6-oxo-6,9-dihydro-1H-purin-2-yl)-L-alanine; (S)-N(2)-(1-carboxyethyl)guanosine

> <FORMULA>
C13H17N5O7

> <MASS>
355.30340

> <MONOISOTOPIC_MASS>
355.11280

> <CHARGE>
0

> <SMILES>
C[C@H](Nc1nc2n(cnc2c(=O)[nH]1)[C@@H]1O[C@H](CO)[C@@H](O)[C@H]1O)C(O)=O

> <INCHI>
InChI=1S/C13H17N5O7/c1-4(12(23)24)15-13-16-9-6(10(22)17-13)14-3-18(9)11-8(21)7(20)5(2-19)25-11/h3-5,7-8,11,19-21H,2H2,1H3,(H,23,24)(H2,15,16,17,22)/t4-,5+,7+,8+,11+/m0/s1

> <INCHIKEY>
JYXKXKDWVWQIOH-LJRSMJOYSA-N

> <PUBMED_CITATION>
15487900

$$$$

Marvin  05061112112D          

 32 35  0  0  1  0            999 V2000
   12.6040   -4.3239    0.0000 C   0  0  0  0  0  0  0  0  0  0  0  0
   13.3184   -6.3864    0.0000 C   0  0  0  0  0  0  0  0  0  0  0  0
   11.8896   -6.3864    0.0000 C   0  0  2  0  0  0  0  0  0  0  0  0
   11.1750   -5.1489    0.0000 C   0  0  0  0  0  0  0  0  0  0  0  0
   13.3184   -3.9114    0.0000 C   0  0  0  0  0  0  0  0  0  0  0  0
   14.8176   -5.4037    0.0000 C   0  0  0  0  0  0  0  0  0  0  0  0
   12.6040   -6.7989    0.0000 C   0  0  0  0  0  0  0  0  0  0  0  0
   11.1750   -6.7989    0.0000 C   0  0  0  0  0  0  0  0  0  0  0  0
   10.4606   -5.5614    0.0000 C   0  0  0  0  0  0  0  0  0  0  0  0
   15.3025   -4.7364    0.0000 C   0  0  0  0  0  0  0  0  0  0  0  0
   10.4606   -6.3864    0.0000 C   0  0  2  0  0  0  0  0  0  0  0  0
    9.7461   -6.7989    0.0000 O   0  0  0  0  0  0  0  0  0  0  0  0
   11.8896   -7.2114    0.0000 H   0  0  0  0  0  0  0  0  0  0  0  0
   12.6040   -5.1489    0.0000 C   0  0  1  0  0  0  0  0  0  0  0  0
   12.6040   -5.9739    0.0000 H   0  0  0  0  0  0  0  0  0  0  0  0
   14.0328   -5.1489    0.0000 C   0  0  1  0  0  0  0  0  0  0  0  0
   14.0328   -5.9739    0.0000 H   0  0  0  0  0  0  0  0  0  0  0  0
   13.3184   -5.5614    0.0000 C   0  0  2  0  0  0  0  0  0  0  0  0
   13.3184   -4.7364    0.0000 H   0  0  0  0  0  0  0  0  0  0  0  0
   11.8896   -5.5614    0.0000 C   0  0  2  0  0  0  0  0  0  0  0  0
   11.8896   -4.7364    0.0000 C   0  0  0  0  0  0  0  0  0  0  0  0
   14.0328   -4.3239    0.0000 C   0  0  2  0  0  0  0  0  0  0  0  0
   14.0328   -3.4989    0.0000 C   0  0  0  0  0  0  0  0  0  0  0  0
   14.8176   -4.0689    0.0000 C   0  0  0  0  0  0  0  0  0  0  0  0
   15.0311   -3.2721    0.0000 O   0  0  0  0  0  0  0  0  0  0  0  0
    9.0316   -6.3863    0.0000 C   0  0  0  0  0  0  0  0  0  0  0  0
    8.3171   -6.7988    0.0000 C   0  0  0  0  0  0  0  0  0  0  0  0
    7.6027   -6.3863    0.0000 C   0  0  0  0  0  0  0  0  0  0  0  0
    6.8883   -6.7988    0.0000 C   0  0  0  0  0  0  0  0  0  0  0  0
    6.1737   -6.3863    0.0000 O   0  0  0  0  0  0  0  0  0  0  0  0
    6.8883   -7.6238    0.0000 O   0  0  0  0  0  0  0  0  0  0  0  0
    9.0316   -5.5613    0.0000 O   0  0  0  0  0  0  0  0  0  0  0  0
 14 18  1  0  0  0  0
 14 20  1  0  0  0  0
 14  1  1  0  0  0  0
 18 16  1  0  0  0  0
 18  2  1  0  0  0  0
 20  3  1  0  0  0  0
 20  4  1  0  0  0  0
  1  5  1  0  0  0  0
 16 22  1  0  0  0  0
 16  6  1  0  0  0  0
  2  7  1  0  0  0  0
  3  8  1  0  0  0  0
  4  9  1  0  0  0  0
 22 24  1  0  0  0  0
  6 10  1  0  0  0  0
  8 11  1  0  0  0  0
 11 12  1  1  0  0  0
  3  7  1  0  0  0  0
  5 22  1  0  0  0  0
  9 11  1  0  0  0  0
 24 10  1  0  0  0  0
  3 13  1  1  0  0  0
 14 15  1  6  0  0  0
 16 17  1  6  0  0  0
 18 19  1  1  0  0  0
 20 21  1  1  0  0  0
 22 23  1  1  0  0  0
 24 25  2  0  0  0  0
 12 26  1  0  0  0  0
 26 27  1  0  0  0  0
 27 28  1  0  0  0  0
 28 29  1  0  0  0  0
 29 30  1  0  0  0  0
 29 31  2  0  0  0  0
 26 32  2  0  0  0  0
M  END
> <ID>
CHEBI:62040

> <NAME>
etiocholanolone hemisuccinate

> <DEFINITION>
A sterol ester that is the O-succinoyl derivative of etiocholanolone.

> <STAR>
3

> <SYNONYM>
etiocholanolone succinate; 5beta-androsterone succinate; 5beta-androsterone hemisuccinate; 4-[(epiandrosteron-3beta-yl)oxy]-4-oxobutanoic acid; 3alpha-hydroxy-5beta-androstan-17-one succinate; 3alpha-hydroxy-5beta-androstan-17-one hemisuccinate; 3alpha-etiocholanolone succinate; 3alpha-etiocholanolone hemisuccinate

> <IUPAC_NAME>
4-oxo-4-{[(3beta,5beta)-17-oxoandrostan-3-yl]oxy}butanoic acid

> <FORMULA>
C23H34O5

> <MASS>
390.51310

> <MONOISOTOPIC_MASS>
390.24062

> <CHARGE>
0

> <SMILES>
[H][C@]12CC[C@@]3([H])[C@]4([H])CCC(=O)[C@@]4(C)CC[C@]3([H])[C@@]1(C)CC[C@@H](C2)OC(=O)CCC(O)=O

> <INCHI>
InChI=1S/C23H34O5/c1-22-11-9-15(28-21(27)8-7-20(25)26)13-14(22)3-4-16-17-5-6-19(24)23(17,2)12-10-18(16)22/h14-18H,3-13H2,1-2H3,(H,25,26)/t14-,15+,16+,17+,18+,22+,23+/m1/s1

> <INCHIKEY>
ZXXJWQGLXHCSFH-YZGNVQHTSA-N

> <REAXYS_REGISTRY_NUMBER>
7365236

> <PUBMED_CITATION>
8496956

$$$$

Marvin  05171113242D          

 31 34  0  0  1  0            999 V2000
   11.8172   -7.2396    0.0000 C   0  0  0  0  0  0  0  0  0  0  0  0
   11.1026   -7.6520    0.0000 C   0  0  0  0  0  0  0  0  0  0  0  0
   10.3882   -7.2396    0.0000 C   0  0  0  0  0  0  0  0  0  0  0  0
    9.6737   -7.6520    0.0000 C   0  0  0  0  0  0  0  0  0  0  0  0
    8.9591   -6.4146    0.0000 C   0  0  0  0  0  0  0  0  0  0  0  0
    9.6737   -6.0021    0.0000 C   0  0  0  0  0  0  0  0  0  0  0  0
   10.3882   -6.4146    0.0000 C   0  0  2  0  0  0  0  0  0  0  0  0
   11.8172   -4.7646    0.0000 C   0  0  0  0  0  0  0  0  0  0  0  0
   11.1026   -6.0021    0.0000 C   0  0  2  0  0  0  0  0  0  0  0  0
   11.1026   -6.8271    0.0000 H   0  0  0  0  0  0  0  0  0  0  0  0
   12.5316   -6.8271    0.0000 H   0  0  0  0  0  0  0  0  0  0  0  0
   11.8172   -6.4146    0.0000 C   0  0  2  0  0  0  0  0  0  0  0  0
   11.8172   -5.5896    0.0000 H   0  0  0  0  0  0  0  0  0  0  0  0
    8.9591   -7.2396    0.0000 C   0  0  0  0  0  0  0  0  0  0  0  0
    8.2447   -7.6521    0.0000 N   0  0  0  0  0  0  0  0  0  0  0  0
   11.1026   -5.1771    0.0000 C   0  0  0  0  0  0  0  0  0  0  0  0
   10.3882   -5.5896    0.0000 C   0  0  0  0  0  0  0  0  0  0  0  0
   12.5316   -4.3521    0.0000 C   0  0  0  0  0  0  0  0  0  0  0  0
   13.8011   -5.5896    0.0000 C   0  0  0  0  0  0  0  0  0  0  0  0
   13.3163   -6.2570    0.0000 C   0  0  0  0  0  0  0  0  0  0  0  0
   12.5316   -6.0021    0.0000 C   0  0  2  0  0  0  0  0  0  0  0  0
   12.5316   -5.1771    0.0000 C   0  0  1  0  0  0  0  0  0  0  0  0
   13.3163   -4.9222    0.0000 C   0  0  1  0  0  0  0  0  0  0  0  0
   13.5711   -4.1375    0.0000 C   0  0  0  0  0  0  0  0  0  0  0  0
   13.0192   -3.5244    0.0000 O   0  0  0  0  0  0  0  0  0  0  0  0
   14.3782   -3.9660    0.0000 C   0  0  0  0  0  0  0  0  0  0  0  0
    7.5302   -7.2396    0.0000 O   0  0  0  0  0  0  0  0  0  0  0  0
    6.8157   -7.6521    0.0000 C   0  0  0  0  0  0  0  0  0  0  0  0
    6.1012   -7.2396    0.0000 C   0  0  0  0  0  0  0  0  0  0  0  0
    5.3868   -7.6520    0.0000 O   0  0  0  0  0  0  0  0  0  0  0  0
    6.1013   -6.4146    0.0000 O   0  0  0  0  0  0  0  0  0  0  0  0
 12  1  1  0  0  0  0
 12  9  1  0  0  0  0
 12 21  1  0  0  0  0
  1  2  1  0  0  0  0
  2  3  1  0  0  0  0
  3  4  2  0  0  0  0
  3  7  1  0  0  0  0
  4 14  1  0  0  0  0
 14  5  1  0  0  0  0
  5  6  1  0  0  0  0
  6  7  1  0  0  0  0
  7  9  1  0  0  0  0
  9 16  1  0  0  0  0
 16  8  1  0  0  0  0
  8 22  1  0  0  0  0
  9 10  1  6  0  0  0
 21 11  1  6  0  0  0
 12 13  1  1  0  0  0
 14 15  2  0  0  0  0
  7 17  1  1  0  0  0
 22 18  1  1  0  0  0
 23 24  1  1  0  0  0
 24 26  1  0  0  0  0
 24 25  2  0  0  0  0
 19 20  1  0  0  0  0
 21 20  1  0  0  0  0
 22 21  1  0  0  0  0
 23 19  1  0  0  0  0
 23 22  1  0  0  0  0
 15 27  1  4  0  0  0
 27 28  1  0  0  0  0
 28 29  1  0  0  0  0
 29 30  1  0  0  0  0
 29 31  2  0  0  0  0
M  END
> <ID>
CHEBI:62042

> <NAME>
progesterone 3-O-(carboxymethyl)oxime

> <DEFINITION>
An oxime O-ether consisting of progesterone having an O-(carboxymethyl)oxime group at the 3-position.

> <STAR>
3

> <SYNONYM>
progesterone 3-carboxymethyloxime; P4-3-CMO; P4 3-carboxymethyloxime

> <IUPAC_NAME>
{[(20-oxopregn-4-en-3-ylidene)amino]oxy}acetic acid

> <FORMULA>
C23H33NO4

> <MASS>
387.51240

> <MONOISOTOPIC_MASS>
387.24096

> <CHARGE>
0

> <SMILES>
[H][C@@]12CCC3=CC(CC[C@]3(C)[C@@]1([H])CC[C@]1(C)[C@H](CC[C@@]21[H])C(C)=O)=NOCC(O)=O

> <INCHI>
InChI=1S/C23H33NO4/c1-14(25)18-6-7-19-17-5-4-15-12-16(24-28-13-21(26)27)8-10-22(15,2)20(17)9-11-23(18,19)3/h12,17-20H,4-11,13H2,1-3H3,(H,26,27)/t17-,18+,19-,20-,22-,23+/m0/s1

> <INCHIKEY>
PPELYUTTZHLIAZ-CSPZMSETSA-N

> <CAS_REGISTRY_NUMBER>
50909-89-2

> <REAXYS_REGISTRY_NUMBER>
6241892

> <CHEMIDPLUS>
50909-89-2

> <PUBMED_CITATION>
18791859; 2428138; 725976; 8496956

$$$$

Marvin  05061114192D          

 34 37  0  0  1  0            999 V2000
   12.2890   -3.5124    0.0000 C   0  0  0  0  0  0  0  0  0  0  0  0
   13.0034   -5.5749    0.0000 C   0  0  0  0  0  0  0  0  0  0  0  0
   11.5745   -5.5749    0.0000 C   0  0  1  0  0  0  0  0  0  0  0  0
   10.8600   -4.3374    0.0000 C   0  0  0  0  0  0  0  0  0  0  0  0
   13.0034   -3.0999    0.0000 C   0  0  0  0  0  0  0  0  0  0  0  0
   14.5025   -4.5922    0.0000 C   0  0  0  0  0  0  0  0  0  0  0  0
   12.2890   -5.9874    0.0000 C   0  0  0  0  0  0  0  0  0  0  0  0
   10.8600   -5.9874    0.0000 C   0  0  0  0  0  0  0  0  0  0  0  0
   10.1456   -4.7499    0.0000 C   0  0  0  0  0  0  0  0  0  0  0  0
   14.9875   -3.9249    0.0000 C   0  0  0  0  0  0  0  0  0  0  0  0
   10.1456   -5.5749    0.0000 C   0  0  2  0  0  0  0  0  0  0  0  0
    9.4311   -5.9874    0.0000 O   0  0  0  0  0  0  0  0  0  0  0  0
   11.5745   -6.3999    0.0000 H   0  0  0  0  0  0  0  0  0  0  0  0
   12.2890   -4.3374    0.0000 C   0  0  1  0  0  0  0  0  0  0  0  0
   12.2890   -5.1624    0.0000 H   0  0  0  0  0  0  0  0  0  0  0  0
   13.7178   -4.3374    0.0000 C   0  0  1  0  0  0  0  0  0  0  0  0
   13.7178   -5.1624    0.0000 H   0  0  0  0  0  0  0  0  0  0  0  0
   13.0034   -4.7499    0.0000 C   0  0  2  0  0  0  0  0  0  0  0  0
   13.0034   -3.9249    0.0000 H   0  0  0  0  0  0  0  0  0  0  0  0
   11.5745   -4.7499    0.0000 C   0  0  2  0  0  0  0  0  0  0  0  0
   11.5745   -3.9249    0.0000 C   0  0  0  0  0  0  0  0  0  0  0  0
   13.7178   -3.5124    0.0000 C   0  0  2  0  0  0  0  0  0  0  0  0
   13.7178   -2.6874    0.0000 C   0  0  0  0  0  0  0  0  0  0  0  0
   14.5025   -3.2574    0.0000 C   0  0  1  0  0  0  0  0  0  0  0  0
   15.5129   -2.2470    0.0000 C   0  0  0  0  0  0  0  0  0  0  0  0
   14.7161   -2.4606    0.0000 C   0  0  0  0  0  0  0  0  0  0  0  0
   14.1327   -1.8772    0.0000 O   0  0  0  0  0  0  0  0  0  0  0  0
    8.7166   -5.5748    0.0000 C   0  0  0  0  0  0  0  0  0  0  0  0
    8.0021   -5.9873    0.0000 C   0  0  0  0  0  0  0  0  0  0  0  0
    7.2877   -5.5748    0.0000 C   0  0  0  0  0  0  0  0  0  0  0  0
    6.5732   -5.9873    0.0000 C   0  0  0  0  0  0  0  0  0  0  0  0
    5.8587   -5.5748    0.0000 O   0  0  0  0  0  0  0  0  0  0  0  0
    6.5732   -6.8123    0.0000 O   0  0  0  0  0  0  0  0  0  0  0  0
    8.7166   -4.7498    0.0000 O   0  0  0  0  0  0  0  0  0  0  0  0
 14 18  1  0  0  0  0
 14 20  1  0  0  0  0
 14  1  1  0  0  0  0
 18 16  1  0  0  0  0
 18  2  1  0  0  0  0
 20  3  1  0  0  0  0
 20  4  1  0  0  0  0
  1  5  1  0  0  0  0
 16 22  1  0  0  0  0
 16  6  1  0  0  0  0
  2  7  1  0  0  0  0
  3  8  1  0  0  0  0
  4  9  1  0  0  0  0
 22 24  1  0  0  0  0
  6 10  1  0  0  0  0
  8 11  1  0  0  0  0
 11 12  1  1  0  0  0
  3  7  1  0  0  0  0
  5 22  1  0  0  0  0
  9 11  1  0  0  0  0
 24 10  1  0  0  0  0
  3 13  1  6  0  0  0
 14 15  1  6  0  0  0
 16 17  1  6  0  0  0
 18 19  1  1  0  0  0
 20 21  1  1  0  0  0
 22 23  1  1  0  0  0
 24 26  1  1  0  0  0
 26 25  1  0  0  0  0
 26 27  2  0  0  0  0
 12 28  1  0  0  0  0
 28 29  1  0  0  0  0
 29 30  1  0  0  0  0
 30 31  1  0  0  0  0
 31 32  1  0  0  0  0
 31 33  2  0  0  0  0
 28 34  2  0  0  0  0
M  END
> <ID>
CHEBI:62043

> <NAME>
3beta-hydroxy-5alpha-pregnan-20-one hemisuccinate

> <DEFINITION>
A sterol ester that is the O-succinoyl derivative of 3β-hydroxy-5α-pregnan-20-one.

> <STAR>
3

> <SYNONYM>
succinic acid mono-(20-oxo-5alpha-pregnan-3beta-yl ester); 3beta-hydroxy-5alpha-pregnan-20-one succinate; 3beta-hydroxy-5alpha-pregnan-20-one hydrogen succinate

> <IUPAC_NAME>
4-oxo-4-{[(3beta,5alpha)-20-oxopregnan-3-yl]oxy}butanoic acid

> <FORMULA>
C25H38O5

> <MASS>
418.56620

> <MONOISOTOPIC_MASS>
418.27192

> <CHARGE>
0

> <SMILES>
[H][C@@]12CC[C@@]3([H])[C@]4([H])CC[C@H](C(C)=O)[C@@]4(C)CC[C@]3([H])[C@@]1(C)CC[C@@H](C2)OC(=O)CCC(O)=O

> <INCHI>
InChI=1S/C25H38O5/c1-15(26)19-6-7-20-18-5-4-16-14-17(30-23(29)9-8-22(27)28)10-12-24(16,2)21(18)11-13-25(19,20)3/h16-21H,4-14H2,1-3H3,(H,27,28)/t16-,17-,18-,19+,20-,21-,24-,25+/m0/s1

> <INCHIKEY>
UVTGFMKBPVLATL-DSOJQRAMSA-N

> <REAXYS_REGISTRY_NUMBER>
3225990

> <PUBMED_CITATION>
8496956

$$$$

Marvin  05061115302D          

 31 34  0  0  1  0            999 V2000
   10.4227   -7.0865    0.0000 C   0  0  0  0  0  0  0  0  0  0  0  0
    9.7081   -7.4989    0.0000 C   0  0  0  0  0  0  0  0  0  0  0  0
    8.9937   -7.0865    0.0000 C   0  0  0  0  0  0  0  0  0  0  0  0
    8.2793   -7.4989    0.0000 C   0  0  0  0  0  0  0  0  0  0  0  0
    7.5647   -6.2615    0.0000 C   0  0  0  0  0  0  0  0  0  0  0  0
    8.2793   -5.8490    0.0000 C   0  0  0  0  0  0  0  0  0  0  0  0
    8.9937   -6.2615    0.0000 C   0  0  2  0  0  0  0  0  0  0  0  0
   10.4227   -4.6115    0.0000 C   0  0  0  0  0  0  0  0  0  0  0  0
   12.4067   -5.4365    0.0000 C   0  0  0  0  0  0  0  0  0  0  0  0
   11.9218   -6.1039    0.0000 C   0  0  0  0  0  0  0  0  0  0  0  0
    9.7081   -5.8490    0.0000 C   0  0  2  0  0  0  0  0  0  0  0  0
    9.7081   -6.6740    0.0000 H   0  0  0  0  0  0  0  0  0  0  0  0
   11.1371   -5.8490    0.0000 C   0  0  1  0  0  0  0  0  0  0  0  0
   11.1371   -6.6740    0.0000 H   0  0  0  0  0  0  0  0  0  0  0  0
   10.4227   -6.2615    0.0000 C   0  0  2  0  0  0  0  0  0  0  0  0
   10.4227   -5.4365    0.0000 H   0  0  0  0  0  0  0  0  0  0  0  0
   11.1371   -5.0240    0.0000 C   0  0  1  0  0  0  0  0  0  0  0  0
   11.9218   -4.7690    0.0000 C   0  0  1  0  0  0  0  0  0  0  0  0
    7.5647   -7.0865    0.0000 C   0  0  0  0  0  0  0  0  0  0  0  0
    6.8502   -7.4990    0.0000 O   0  0  0  0  0  0  0  0  0  0  0  0
    9.7081   -5.0240    0.0000 C   0  0  0  0  0  0  0  0  0  0  0  0
   11.9218   -3.9440    0.0000 C   0  0  1  0  0  0  0  0  0  0  0  0
    8.9937   -5.4365    0.0000 C   0  0  0  0  0  0  0  0  0  0  0  0
   11.1371   -4.1990    0.0000 C   0  0  0  0  0  0  0  0  0  0  0  0
   12.6363   -4.3565    0.0000 H   0  0  0  0  0  0  0  0  0  0  0  0
   12.6364   -3.5315    0.0000 O   0  0  0  0  0  0  0  0  0  0  0  0
   11.2074   -3.5315    0.0000 C   0  0  0  0  0  0  0  0  0  0  0  0
   13.3508   -3.9440    0.0000 C   0  0  0  0  0  0  0  0  0  0  0  0
   14.0653   -3.5315    0.0000 C   0  0  0  0  0  0  0  0  0  0  0  0
   14.7798   -3.9440    0.0000 O   0  0  0  0  0  0  0  0  0  0  0  0
   14.0653   -2.7065    0.0000 O   0  0  0  0  0  0  0  0  0  0  0  0
 15  1  1  0  0  0  0
 15 11  1  0  0  0  0
 15 13  1  0  0  0  0
  1  2  1  0  0  0  0
  2  3  1  0  0  0  0
  3  4  2  0  0  0  0
  3  7  1  0  0  0  0
  4 19  1  0  0  0  0
 19  5  1  0  0  0  0
  5  6  1  0  0  0  0
  6  7  1  0  0  0  0
  7 11  1  0  0  0  0
 11 21  1  0  0  0  0
 21  8  1  0  0  0  0
  8 17  1  0  0  0  0
 17 18  1  0  0  0  0
 17 13  1  0  0  0  0
 18  9  1  0  0  0  0
  9 10  1  0  0  0  0
 10 13  1  0  0  0  0
 11 12  1  6  0  0  0
 13 14  1  6  0  0  0
 15 16  1  1  0  0  0
 18 25  1  6  0  0  0
 18 22  1  0  0  0  0
 19 20  2  0  0  0  0
 22 26  1  6  0  0  0
  7 23  1  1  0  0  0
 17 24  1  1  0  0  0
 22 27  1  0  0  0  0
 26 28  1  0  0  0  0
 28 29  1  0  0  0  0
 29 30  1  0  0  0  0
 29 31  2  0  0  0  0
M  END
> <ID>
CHEBI:62045

> <NAME>
(20S)-20-(carboxymethyl)oxypregn-4-en-3-one

> <DEFINITION>
A steroid acid comprising (20S)-20-hydroxypregn-4-en-3-one having a carboxymethyl group attached to the 20-hydroxy function.

> <STAR>
3

> <SYNONYM>
(20S)-20-hydroxypregn-4-en-3-one carboxymethyl ether

> <IUPAC_NAME>
{[(20S)-3-oxopregn-4-en-20-yl]oxy}acetic acid

> <FORMULA>
C23H34O4

> <MASS>
374.51370

> <MONOISOTOPIC_MASS>
374.24571

> <CHARGE>
0

> <SMILES>
[H][C@@]1(CC[C@@]2([H])[C@]3([H])CCC4=CC(=O)CC[C@]4(C)[C@@]3([H])CC[C@]12C)[C@H](C)OCC(O)=O

> <INCHI>
InChI=1S/C23H34O4/c1-14(27-13-21(25)26)18-6-7-19-17-5-4-15-12-16(24)8-10-22(15,2)20(17)9-11-23(18,19)3/h12,14,17-20H,4-11,13H2,1-3H3,(H,25,26)/t14-,17-,18+,19-,20-,22-,23+/m0/s1

> <INCHIKEY>
VUKWZNZHAKAFNU-ATUDNIAQSA-N

> <PUBMED_CITATION>
8496956

$$$$

Marvin  05101116572D          

 36 38  0  0  0  0            999 V2000
    0.5414   -0.9854    0.0000 C   0  0  1  0  0  0  0  0  0  0  0  0
    0.5414   -1.8104    0.0000 C   0  0  1  0  0  0  0  0  0  0  0  0
   -0.1732   -0.5729    0.0000 O   0  0  0  0  0  0  0  0  0  0  0  0
   -0.1732   -2.2229    0.0000 C   0  0  2  0  0  0  0  0  0  0  0  0
   -0.8876   -0.9854    0.0000 C   0  0  1  0  0  0  0  0  0  0  0  0
   -0.8876   -1.8104    0.0000 C   0  0  2  0  0  0  0  0  0  0  0  0
    1.2558   -0.5729    0.0000 O   0  0  0  0  0  0  0  0  0  0  0  0
    1.2558   -2.2229    0.0000 O   0  0  0  0  0  0  0  0  0  0  0  0
   -0.1732   -3.0479    0.0000 O   0  0  0  0  0  0  0  0  0  0  0  0
   -1.6021   -2.2229    0.0000 O   0  0  0  0  0  0  0  0  0  0  0  0
   -1.6021   -0.5729    0.0000 C   0  0  0  0  0  0  0  0  0  0  0  0
   -2.3165   -0.9854    0.0000 O   0  0  0  0  0  0  0  0  0  0  0  0
    3.3993    0.6646    0.0000 C   0  0  0  0  0  0  0  0  0  0  0  0
    3.3993   -0.1604    0.0000 C   0  0  1  0  0  0  0  0  0  0  0  0
    2.6848    1.0771    0.0000 O   0  0  0  0  0  0  0  0  0  0  0  0
    2.6848   -0.5729    0.0000 C   0  0  2  0  0  0  0  0  0  0  0  0
    1.9703    0.6646    0.0000 C   0  0  1  0  0  0  0  0  0  0  0  0
    1.9703   -0.1604    0.0000 C   0  0  2  0  0  0  0  0  0  0  0  0
    4.1137    1.0771    0.0000 O   0  0  0  0  0  0  0  0  0  0  0  0
    4.1137   -0.5729    0.0000 O   0  0  0  0  0  0  0  0  0  0  0  0
    2.6848   -1.3979    0.0000 O   0  0  0  0  0  0  0  0  0  0  0  0
    1.2558    1.0771    0.0000 C   0  0  0  0  0  0  0  0  0  0  0  0
    0.5414    0.6646    0.0000 O   0  0  0  0  0  0  0  0  0  0  0  0
   -4.4600    2.7271    0.0000 C   0  0  0  0  0  0  0  0  0  0  0  0
   -3.7455    3.1396    0.0000 C   0  0  0  0  0  0  0  0  0  0  0  0
   -4.4599    1.9021    0.0000 C   0  0  0  0  0  0  0  0  0  0  0  0
   -3.0310    2.7271    0.0000 C   0  0  0  0  0  0  0  0  0  0  0  0
   -3.7455    1.4896    0.0000 C   0  0  0  0  0  0  0  0  0  0  0  0
   -3.0310    1.9021    0.0000 C   0  0  0  0  0  0  0  0  0  0  0  0
   -3.7455    3.9646    0.0000 O   0  0  0  0  0  0  0  0  0  0  0  0
   -2.3165    3.1396    0.0000 O   0  0  0  0  0  0  0  0  0  0  0  0
   -1.6020    2.7270    0.0000 C   0  0  0  0  0  0  0  0  0  0  0  0
   -3.7455    0.6646    0.0000 C   0  0  0  0  0  0  0  0  0  0  0  0
   -3.0310    0.2521    0.0000 C   0  0  0  0  0  0  0  0  0  0  0  0
   -3.0310   -0.5729    0.0000 C   0  0  0  0  0  0  0  0  0  0  0  0
   -3.7455   -0.9854    0.0000 O   0  0  0  0  0  0  0  0  0  0  0  0
  1  2  1  0  0  0  0
  1  3  1  0  0  0  0
  1  7  1  1  0  0  0
  2  4  1  0  0  0  0
  2  8  1  6  0  0  0
  3  5  1  0  0  0  0
  4  6  1  0  0  0  0
  4  9  1  1  0  0  0
  5  6  1  0  0  0  0
  5 11  1  1  0  0  0
  6 10  1  1  0  0  0
 18  7  1  1  0  0  0
 12 11  1  0  0  0  0
 35 12  1  0  0  0  0
 13 14  1  0  0  0  0
 13 15  1  0  0  0  0
 13 19  1  0  0  0  0
 14 16  1  0  0  0  0
 14 20  1  6  0  0  0
 15 17  1  0  0  0  0
 16 18  1  0  0  0  0
 16 21  1  1  0  0  0
 17 18  1  0  0  0  0
 17 22  1  1  0  0  0
 23 22  1  0  0  0  0
 25 24  1  0  0  0  0
 26 24  2  0  0  0  0
 27 25  2  0  0  0  0
 25 30  1  0  0  0  0
 28 26  1  0  0  0  0
 29 27  1  0  0  0  0
 27 31  1  0  0  0  0
 29 28  2  0  0  0  0
 28 33  1  0  0  0  0
 31 32  1  0  0  0  0
 33 34  2  0  0  0  0
 34 35  1  0  0  0  0
 35 36  2  0  0  0  0
M  END
> <ID>
CHEBI:62050

> <NAME>
6-O-(trans-feruloyl)-beta-D-galactopyranosyl-(1->4)-D-galactopyranose

> <DEFINITION>
A disaccharide derivative consisting of two D-galactose residues linked (1→4), feruloylated at O-6 of the residue at the non-reducing end.

> <STAR>
3

> <SYNONYM>
O-[6-O-(trans-feruloyl)-beta-D-galactopyranosyl]-(1->4)-D-galactopyranose; Gal2F

> <IUPAC_NAME>
6-O-[(2E)-3-(4-hydroxy-3-methoxyphenyl)prop-2-enoyl]-beta-D-galactopyranosyl-(1->4)-D-galactopyranose; 4-O-{6-O-[(2E)-3-(4-hydroxy-3-methoxyphenyl)prop-2-enoyl]-beta-D-galactopyranosyl}-D-galactopyranose

> <FORMULA>
C22H30O14

> <MASS>
518.46520

> <MONOISOTOPIC_MASS>
518.16356

> <CHARGE>
0

> <SMILES>
COc1cc(\C=C\C(=O)OC[C@H]2O[C@@H](O[C@H]3[C@@H](CO)OC(O)[C@H](O)[C@H]3O)[C@H](O)[C@@H](O)[C@H]2O)ccc1O

> <INCHI>
InChI=1S/C22H30O14/c1-32-11-6-9(2-4-10(11)24)3-5-14(25)33-8-13-15(26)16(27)19(30)22(35-13)36-20-12(7-23)34-21(31)18(29)17(20)28/h2-6,12-13,15-24,26-31H,7-8H2,1H3/b5-3+/t12-,13-,15+,16+,17-,18-,19-,20+,21?,22+/m1/s1

> <INCHIKEY>
BMFJVMSODSNMGN-FMEUVLPYSA-N

> <REAXYS_REGISTRY_NUMBER>
7085815

> <PUBMED_CITATION>
15221383; 7805051

$$$$

Marvin  05121110252D          

 37 39  0  0  1  0            999 V2000
   23.1104   -7.0464    0.0000 C   0  0  2  0  0  0  0  0  0  0  0  0
   23.1104   -7.8714    0.0000 C   0  0  1  0  0  0  0  0  0  0  0  0
   22.3959   -6.6339    0.0000 O   0  0  0  0  0  0  0  0  0  0  0  0
   22.3959   -8.2839    0.0000 C   0  0  2  0  0  0  0  0  0  0  0  0
   21.6814   -7.0464    0.0000 C   0  0  1  0  0  0  0  0  0  0  0  0
   21.6814   -7.8714    0.0000 C   0  0  2  0  0  0  0  0  0  0  0  0
   23.8249   -6.6339    0.0000 O   0  0  0  0  0  0  0  0  0  0  0  0
   23.8249   -8.2839    0.0000 O   0  0  0  0  0  0  0  0  0  0  0  0
   22.3959   -9.1089    0.0000 O   0  0  0  0  0  0  0  0  0  0  0  0
   20.9670   -8.2839    0.0000 O   0  0  0  0  0  0  0  0  0  0  0  0
   20.9670   -6.6339    0.0000 C   0  0  0  0  0  0  0  0  0  0  0  0
   20.2525   -7.0464    0.0000 O   0  0  0  0  0  0  0  0  0  0  0  0
   24.5394   -4.5714    0.0000 C   0  0  1  0  0  0  0  0  0  0  0  0
   24.5394   -5.3964    0.0000 C   0  0  1  0  0  0  0  0  0  0  0  0
   23.8249   -4.1589    0.0000 O   0  0  0  0  0  0  0  0  0  0  0  0
   23.8249   -5.8089    0.0000 C   0  0  2  0  0  0  0  0  0  0  0  0
   23.1104   -4.5714    0.0000 C   0  0  1  0  0  0  0  0  0  0  0  0
   23.1104   -5.3964    0.0000 C   0  0  2  0  0  0  0  0  0  0  0  0
   25.2539   -4.1589    0.0000 O   0  0  0  0  0  0  0  0  0  0  0  0
   25.2539   -5.8089    0.0000 O   0  0  0  0  0  0  0  0  0  0  0  0
   22.3960   -5.8089    0.0000 O   0  0  0  0  0  0  0  0  0  0  0  0
   22.3960   -4.1589    0.0000 C   0  0  0  0  0  0  0  0  0  0  0  0
   21.6815   -4.5714    0.0000 O   0  0  0  0  0  0  0  0  0  0  0  0
   27.3973   -2.9214    0.0000 C   0  0  1  0  0  0  0  0  0  0  0  0
   27.3973   -3.7464    0.0000 C   0  0  1  0  0  0  0  0  0  0  0  0
   26.6828   -2.5089    0.0000 O   0  0  0  0  0  0  0  0  0  0  0  0
   26.6828   -4.1589    0.0000 C   0  0  2  0  0  0  0  0  0  0  0  0
   25.9683   -2.9214    0.0000 C   0  0  1  0  0  0  0  0  0  0  0  0
   25.9683   -3.7464    0.0000 C   0  0  1  0  0  0  0  0  0  0  0  0
   28.1118   -2.5089    0.0000 N   0  0  0  0  0  0  0  0  0  0  0  0
   28.1118   -4.1589    0.0000 O   0  0  0  0  0  0  0  0  0  0  0  0
   26.6828   -4.9839    0.0000 O   0  0  0  0  0  0  0  0  0  0  0  0
   25.2539   -2.5089    0.0000 C   0  0  0  0  0  0  0  0  0  0  0  0
   24.5394   -2.9214    0.0000 O   0  0  0  0  0  0  0  0  0  0  0  0
   28.8263   -2.9214    0.0000 C   0  0  0  0  0  0  0  0  0  0  0  0
   29.5407   -2.5089    0.0000 O   0  0  0  0  0  0  0  0  0  0  0  0
   28.8263   -3.7464    0.0000 C   0  0  0  0  0  0  0  0  0  0  0  0
  1  2  1  0  0  0  0
  1  3  1  0  0  0  0
  2  4  1  0  0  0  0
  3  5  1  0  0  0  0
  4  6  1  0  0  0  0
  5  6  1  0  0  0  0
  1  7  1  6  0  0  0
  2  8  1  6  0  0  0
  4  9  1  1  0  0  0
  6 10  1  1  0  0  0
  5 11  1  1  0  0  0
 12 11  1  0  0  0  0
 13 14  1  0  0  0  0
 13 15  1  0  0  0  0
 14 16  1  0  0  0  0
 15 17  1  0  0  0  0
 16 18  1  0  0  0  0
 17 18  1  0  0  0  0
 13 19  1  1  0  0  0
 14 20  1  6  0  0  0
 16  7  1  1  0  0  0
 18 21  1  1  0  0  0
 17 22  1  1  0  0  0
 23 22  1  0  0  0  0
 24 25  1  0  0  0  0
 24 26  1  0  0  0  0
 25 27  1  0  0  0  0
 26 28  1  0  0  0  0
 27 29  1  0  0  0  0
 28 29  1  0  0  0  0
 24 30  1  1  0  0  0
 25 31  1  6  0  0  0
 27 32  1  1  0  0  0
 29 19  1  6  0  0  0
 28 33  1  1  0  0  0
 34 33  1  0  0  0  0
 36 35  2  0  0  0  0
 37 35  1  0  0  0  0
 30 35  1  0  0  0  0
M  END
> <ID>
CHEBI:62052

> <NAME>
alpha-D-Gal-(1->3)-beta-D-Gal-(1->4)-beta-D-Glc-NHAc

> <DEFINITION>
The N-glycosyl compound formed from the trisaccharide α-D-Gal-(1→3)-β-D-Gal-(1→4)-β-D-Glc by replacement of the OH at the anomeric centre of the glucose residue by an acetylamino group.

> <STAR>
3

> <SYNONYM>
alpha-D-Galp-(1->3)-beta-D-Galp-(1->4)-beta-D-Glcp-NHAc

> <IUPAC_NAME>
alpha-D-galactopyranosyl-(1->3)-beta-D-galactopyranosyl-(1->4)-N-acetyl-beta-D-glucopyranosylamine

> <FORMULA>
C20H35NO16

> <MASS>
545.48900

> <MONOISOTOPIC_MASS>
545.19558

> <CHARGE>
0

> <SMILES>
CC(=O)N[C@@H]1O[C@H](CO)[C@@H](O[C@@H]2O[C@H](CO)[C@H](O)[C@H](O[C@H]3O[C@H](CO)[C@H](O)[C@H](O)[C@H]3O)[C@H]2O)[C@H](O)[C@H]1O

> <INCHI>
InChI=1S/C20H35NO16/c1-5(25)21-18-13(30)12(29)16(8(4-24)33-18)36-20-15(32)17(10(27)7(3-23)35-20)37-19-14(31)11(28)9(26)6(2-22)34-19/h6-20,22-24,26-32H,2-4H2,1H3,(H,21,25)/t6-,7-,8-,9+,10+,11+,12-,13-,14-,15-,16-,17+,18-,19-,20+/m1/s1

> <INCHIKEY>
JWDHUCVHZRWBKR-IGXBOIGJSA-N

> <REAXYS_REGISTRY_NUMBER>
8377313

> <KEGG_GLYCAN_ACCESSION>
G00304

> <PUBMED_CITATION>
12151204

$$$$

Marvin  05111113452D          

 41 44  0  0  1  0            999 V2000
    9.7094   -7.1666    0.0000 C   0  0  2  0  0  0  0  0  0  0  0  0
    9.7094   -7.9916    0.0000 C   0  0  1  0  0  0  0  0  0  0  0  0
    8.9949   -6.7541    0.0000 O   0  0  0  0  0  0  0  0  0  0  0  0
    8.9949   -8.4041    0.0000 C   0  0  2  0  0  0  0  0  0  0  0  0
    8.2804   -7.1666    0.0000 C   0  0  1  0  0  0  0  0  0  0  0  0
    8.2804   -7.9916    0.0000 C   0  0  2  0  0  0  0  0  0  0  0  0
   10.4238   -6.7541    0.0000 O   0  0  0  0  0  0  0  0  0  0  0  0
   10.4238   -8.4041    0.0000 O   0  0  0  0  0  0  0  0  0  0  0  0
    8.9949   -9.2291    0.0000 O   0  0  0  0  0  0  0  0  0  0  0  0
    7.5659   -8.4041    0.0000 O   0  0  0  0  0  0  0  0  0  0  0  0
    7.5659   -6.7541    0.0000 C   0  0  0  0  0  0  0  0  0  0  0  0
    6.8515   -7.1666    0.0000 O   0  0  0  0  0  0  0  0  0  0  0  0
   11.1384   -4.6916    0.0000 C   0  0  1  0  0  0  0  0  0  0  0  0
   11.1384   -5.5166    0.0000 C   0  0  1  0  0  0  0  0  0  0  0  0
   10.4238   -4.2791    0.0000 O   0  0  0  0  0  0  0  0  0  0  0  0
   10.4238   -5.9291    0.0000 C   0  0  2  0  0  0  0  0  0  0  0  0
    9.7094   -4.6916    0.0000 C   0  0  1  0  0  0  0  0  0  0  0  0
    9.7094   -5.5166    0.0000 C   0  0  2  0  0  0  0  0  0  0  0  0
   11.8528   -4.2791    0.0000 O   0  0  0  0  0  0  0  0  0  0  0  0
   11.8528   -5.9291    0.0000 O   0  0  0  0  0  0  0  0  0  0  0  0
    8.9949   -5.9291    0.0000 O   0  0  0  0  0  0  0  0  0  0  0  0
    8.9949   -4.2791    0.0000 C   0  0  0  0  0  0  0  0  0  0  0  0
    8.2805   -4.6916    0.0000 O   0  0  0  0  0  0  0  0  0  0  0  0
   13.9963   -3.0416    0.0000 C   0  0  1  0  0  0  0  0  0  0  0  0
   13.9963   -3.8666    0.0000 C   0  0  1  0  0  0  0  0  0  0  0  0
   13.2818   -2.6291    0.0000 O   0  0  0  0  0  0  0  0  0  0  0  0
   13.2818   -4.2791    0.0000 C   0  0  2  0  0  0  0  0  0  0  0  0
   12.5673   -3.0416    0.0000 C   0  0  1  0  0  0  0  0  0  0  0  0
   12.5673   -3.8666    0.0000 C   0  0  1  0  0  0  0  0  0  0  0  0
   14.7107   -2.6290    0.0000 O   0  0  0  0  0  0  0  0  0  0  0  0
   14.7107   -4.2791    0.0000 O   0  0  0  0  0  0  0  0  0  0  0  0
   13.2818   -5.1041    0.0000 O   0  0  0  0  0  0  0  0  0  0  0  0
   11.8528   -2.6291    0.0000 C   0  0  0  0  0  0  0  0  0  0  0  0
   11.1384   -3.0416    0.0000 O   0  0  0  0  0  0  0  0  0  0  0  0
   15.4252   -3.0415    0.0000 C   0  0  0  0  0  0  0  0  0  0  0  0
   16.1397   -2.6290    0.0000 C   0  0  0  0  0  0  0  0  0  0  0  0
   16.8541   -1.3915    0.0000 C   0  0  0  0  0  0  0  0  0  0  0  0
   16.1397   -1.8040    0.0000 C   0  0  0  0  0  0  0  0  0  0  0  0
   16.8541   -3.0415    0.0000 C   0  0  0  0  0  0  0  0  0  0  0  0
   17.5686   -2.6290    0.0000 C   0  0  0  0  0  0  0  0  0  0  0  0
   17.5686   -1.8040    0.0000 C   0  0  0  0  0  0  0  0  0  0  0  0
  1  2  1  0  0  0  0
  1  3  1  0  0  0  0
  2  4  1  0  0  0  0
  3  5  1  0  0  0  0
  4  6  1  0  0  0  0
  5  6  1  0  0  0  0
  1  7  1  6  0  0  0
  2  8  1  6  0  0  0
  4  9  1  1  0  0  0
  6 10  1  1  0  0  0
  5 11  1  1  0  0  0
 12 11  1  0  0  0  0
 13 14  1  0  0  0  0
 13 15  1  0  0  0  0
 14 16  1  0  0  0  0
 15 17  1  0  0  0  0
 16 18  1  0  0  0  0
 17 18  1  0  0  0  0
 13 19  1  1  0  0  0
 14 20  1  6  0  0  0
 16  7  1  1  0  0  0
 18 21  1  1  0  0  0
 17 22  1  1  0  0  0
 23 22  1  0  0  0  0
 24 25  1  0  0  0  0
 24 26  1  0  0  0  0
 25 27  1  0  0  0  0
 26 28  1  0  0  0  0
 27 29  1  0  0  0  0
 28 29  1  0  0  0  0
 24 30  1  1  0  0  0
 25 31  1  6  0  0  0
 27 32  1  1  0  0  0
 29 19  1  6  0  0  0
 28 33  1  1  0  0  0
 34 33  1  0  0  0  0
 30 35  1  0  0  0  0
 35 36  1  0  0  0  0
 38 36  2  0  0  0  0
 36 39  1  0  0  0  0
 37 38  1  0  0  0  0
 39 40  2  0  0  0  0
 40 41  1  0  0  0  0
 37 41  2  0  0  0  0
M  END
> <ID>
CHEBI:62053

> <NAME>
alpha-D-Gal-(1->3)-beta-D-Gal-(1->4)-beta-D-GlcOBn

> <DEFINITION>
A trisaccharide derivative that is the benzyl glycoside of α-D-Gal-(1→3)-β-D-Gal-(1→4)-β-D-Glc.

> <STAR>
3

> <SYNONYM>
alpha-D-Galp-(1->3)-beta-D-Galp-(1->4)-beta-D-GlcpOBn

> <IUPAC_NAME>
benzyl alpha-D-galactopyranosyl-(1->3)-beta-D-galactopyranosyl-(1->4)-beta-D-glucopyranoside

> <FORMULA>
C25H38O16

> <MASS>
594.55960

> <MONOISOTOPIC_MASS>
594.21599

> <CHARGE>
0

> <SMILES>
OC[C@H]1O[C@H](O[C@H]2[C@@H](O)[C@@H](CO)O[C@@H](O[C@@H]3[C@@H](CO)O[C@@H](OCc4ccccc4)[C@H](O)[C@H]3O)[C@@H]2O)[C@H](O)[C@@H](O)[C@H]1O

> <INCHI>
InChI=1S/C25H38O16/c26-6-11-14(29)16(31)18(33)24(37-11)41-22-15(30)12(7-27)38-25(20(22)35)40-21-13(8-28)39-23(19(34)17(21)32)36-9-10-4-2-1-3-5-10/h1-5,11-35H,6-9H2/t11-,12-,13-,14+,15+,16+,17-,18-,19-,20-,21-,22+,23-,24-,25+/m1/s1

> <INCHIKEY>
DBDMBUCEVVLURG-PVPAYKMISA-N

> <REAXYS_REGISTRY_NUMBER>
8888508

> <PUBMED_CITATION>
12151204

$$$$

Marvin  05121112152D          

 35 37  0  0  1  0            999 V2000
    5.2464  -17.1461    0.0000 C   0  0  2  0  0  0  0  0  0  0  0  0
    5.2464  -17.9711    0.0000 C   0  0  0  0  0  0  0  0  0  0  0  0
    4.5319  -16.7336    0.0000 O   0  0  0  0  0  0  0  0  0  0  0  0
    4.5319  -18.3836    0.0000 C   0  0  2  0  0  0  0  0  0  0  0  0
    3.8175  -17.1461    0.0000 C   0  0  1  0  0  0  0  0  0  0  0  0
    3.8175  -17.9711    0.0000 C   0  0  2  0  0  0  0  0  0  0  0  0
    5.9609  -16.7336    0.0000 O   0  0  0  0  0  0  0  0  0  0  0  0
    4.5319  -19.2086    0.0000 O   0  0  0  0  0  0  0  0  0  0  0  0
    3.1030  -18.3836    0.0000 O   0  0  0  0  0  0  0  0  0  0  0  0
    3.1030  -16.7336    0.0000 C   0  0  0  0  0  0  0  0  0  0  0  0
    2.3885  -17.1461    0.0000 O   0  0  0  0  0  0  0  0  0  0  0  0
    6.6754  -14.6711    0.0000 C   0  0  1  0  0  0  0  0  0  0  0  0
    6.6754  -15.4961    0.0000 C   0  0  1  0  0  0  0  0  0  0  0  0
    5.9609  -14.2586    0.0000 O   0  0  0  0  0  0  0  0  0  0  0  0
    5.9609  -15.9086    0.0000 C   0  0  2  0  0  0  0  0  0  0  0  0
    5.2464  -14.6711    0.0000 C   0  0  1  0  0  0  0  0  0  0  0  0
    5.2464  -15.4961    0.0000 C   0  0  2  0  0  0  0  0  0  0  0  0
    7.3899  -14.2585    0.0000 O   0  0  0  0  0  0  0  0  0  0  0  0
    7.3899  -15.9086    0.0000 O   0  0  0  0  0  0  0  0  0  0  0  0
    4.5320  -15.9086    0.0000 O   0  0  0  0  0  0  0  0  0  0  0  0
    4.5320  -14.2586    0.0000 C   0  0  0  0  0  0  0  0  0  0  0  0
    3.8175  -14.6711    0.0000 O   0  0  0  0  0  0  0  0  0  0  0  0
    9.5333  -13.0210    0.0000 C   0  0  1  0  0  0  0  0  0  0  0  0
    9.5333  -13.8460    0.0000 C   0  0  1  0  0  0  0  0  0  0  0  0
    8.8188  -12.6085    0.0000 O   0  0  0  0  0  0  0  0  0  0  0  0
    8.8188  -14.2585    0.0000 C   0  0  2  0  0  0  0  0  0  0  0  0
    8.1044  -13.0210    0.0000 C   0  0  1  0  0  0  0  0  0  0  0  0
    8.1044  -13.8460    0.0000 C   0  0  1  0  0  0  0  0  0  0  0  0
   10.2478  -12.6085    0.0000 N   0  0  0  0  0  0  0  0  0  0  0  0
   10.2478  -14.2586    0.0000 O   0  0  0  0  0  0  0  0  0  0  0  0
    8.8188  -15.0835    0.0000 O   0  0  0  0  0  0  0  0  0  0  0  0
    7.3899  -12.6086    0.0000 C   0  0  0  0  0  0  0  0  0  0  0  0
    6.6754  -13.0211    0.0000 O   0  0  0  0  0  0  0  0  0  0  0  0
   10.9623  -12.1960    0.0000 N   0  3  0  0  0  0  0  0  0  0  0  0
   11.6767  -11.7835    0.0000 N   0  5  0  0  0  0  0  0  0  0  0  0
  1  2  1  0  0  0  0
  1  3  1  0  0  0  0
  2  4  1  0  0  0  0
  3  5  1  0  0  0  0
  4  6  1  0  0  0  0
  5  6  1  0  0  0  0
  1  7  1  6  0  0  0
  4  8  1  1  0  0  0
  6  9  1  1  0  0  0
  5 10  1  1  0  0  0
 11 10  1  0  0  0  0
 12 13  1  0  0  0  0
 12 14  1  0  0  0  0
 13 15  1  0  0  0  0
 14 16  1  0  0  0  0
 15 17  1  0  0  0  0
 16 17  1  0  0  0  0
 12 18  1  1  0  0  0
 13 19  1  6  0  0  0
 15  7  1  1  0  0  0
 17 20  1  1  0  0  0
 16 21  1  1  0  0  0
 22 21  1  0  0  0  0
 23 24  1  0  0  0  0
 23 25  1  0  0  0  0
 24 26  1  0  0  0  0
 25 27  1  0  0  0  0
 26 28  1  0  0  0  0
 27 28  1  0  0  0  0
 23 29  1  1  0  0  0
 24 30  1  6  0  0  0
 26 31  1  1  0  0  0
 28 18  1  6  0  0  0
 27 32  1  1  0  0  0
 33 32  1  0  0  0  0
 29 34  2  0  0  0  0
 34 35  2  0  0  0  0
M  CHG  2  34   1  35  -1
M  END
> <ID>
CHEBI:62054

> <NAME>
2-deoxy-alpha-D-Gal-(1->3)-beta-D-Gal-(1->4)-beta-D-Glc-N3

> <DEFINITION>
The N-glycosyl compound formed from the deoxy trisaccharide 2-deoxy-α-D-Gal-(1→3)-β-D-Gal-(1→4)-β-D-Glc by replacement of the OH at the anomeric centre of the glucose residue by an azido group.

> <STAR>
3

> <SYNONYM>
2-deoxy-alpha-D-galactosyl-(1->3)-beta-D-galactosyl-(1->4)-beta-D-glucosyl azide

> <IUPAC_NAME>
2-deoxy-alpha-D-lyxo-hexopyranosyl-(1->3)-beta-D-galactopyranosyl-(1->4)-beta-D-glucopyranosyl azide

> <FORMULA>
C18H31N3O14

> <MASS>
513.45040

> <MONOISOTOPIC_MASS>
513.18060

> <CHARGE>
0

> <SMILES>
OC[C@H]1O[C@@H](C[C@@H](O)[C@H]1O)O[C@H]1[C@@H](O)[C@@H](CO)O[C@@H](O[C@@H]2[C@@H](CO)O[C@@H](N=[N+]=[N-])[C@H](O)[C@H]2O)[C@@H]1O

> <INCHI>
InChI=1S/C18H31N3O14/c19-21-20-17-13(29)12(28)15(8(4-24)32-17)35-18-14(30)16(11(27)7(3-23)33-18)34-9-1-5(25)10(26)6(2-22)31-9/h5-18,22-30H,1-4H2/t5-,6-,7-,8-,9-,10-,11+,12-,13-,14-,15-,16+,17-,18+/m1/s1

> <INCHIKEY>
FVVXICPCZVBVSE-MLFZLMIFSA-N

> <REAXYS_REGISTRY_NUMBER>
9242042

> <PUBMED_CITATION>
12151204

$$$$

Marvin  05111115402D          

 31 33  0  0  1  0            999 V2000
   16.6825   -5.1190    0.0000 C   0  0  2  0  0  0  0  0  0  0  0  0
   16.6825   -5.9440    0.0000 C   0  0  2  0  0  0  0  0  0  0  0  0
   15.9679   -4.7065    0.0000 O   0  0  0  0  0  0  0  0  0  0  0  0
   15.9679   -6.3565    0.0000 C   0  0  2  0  0  0  0  0  0  0  0  0
   15.2535   -5.1190    0.0000 C   0  0  1  0  0  0  0  0  0  0  0  0
   15.2535   -5.9440    0.0000 C   0  0  1  0  0  0  0  0  0  0  0  0
   17.3969   -4.7065    0.0000 O   0  0  0  0  0  0  0  0  0  0  0  0
   17.3969   -6.3565    0.0000 O   0  0  0  0  0  0  0  0  0  0  0  0
   15.9679   -7.1815    0.0000 O   0  0  0  0  0  0  0  0  0  0  0  0
   14.5390   -6.3565    0.0000 O   0  0  0  0  0  0  0  0  0  0  0  0
   14.5390   -4.7065    0.0000 C   0  0  0  0  0  0  0  0  0  0  0  0
   15.2534   -7.5940    0.0000 C   0  0  2  0  0  0  0  0  0  0  0  0
   15.2534   -8.4190    0.0000 C   0  0  2  0  0  0  0  0  0  0  0  0
   14.5389   -7.1815    0.0000 O   0  0  0  0  0  0  0  0  0  0  0  0
   14.5389   -8.8315    0.0000 C   0  0  2  0  0  0  0  0  0  0  0  0
   13.8245   -7.5940    0.0000 C   0  0  1  0  0  0  0  0  0  0  0  0
   13.8245   -8.4190    0.0000 C   0  0  1  0  0  0  0  0  0  0  0  0
   15.9679   -8.8315    0.0000 O   0  0  0  0  0  0  0  0  0  0  0  0
   14.5389   -9.6566    0.0000 O   0  0  0  0  0  0  0  0  0  0  0  0
   13.1100   -8.8315    0.0000 O   0  0  0  0  0  0  0  0  0  0  0  0
   13.1100   -7.1815    0.0000 C   0  0  0  0  0  0  0  0  0  0  0  0
   15.9679   -9.6566    0.0000 C   0  0  2  0  0  0  0  0  0  0  0  0
   16.6824  -10.0691    0.0000 C   0  0  2  0  0  0  0  0  0  0  0  0
   15.2534  -10.0691    0.0000 O   0  0  0  0  0  0  0  0  0  0  0  0
   16.6823  -10.8941    0.0000 C   0  0  2  0  0  0  0  0  0  0  0  0
   15.2534  -10.8941    0.0000 C   0  0  1  0  0  0  0  0  0  0  0  0
   15.9679  -11.3066    0.0000 C   0  0  1  0  0  0  0  0  0  0  0  0
   17.3969   -9.6566    0.0000 O   0  0  0  0  0  0  0  0  0  0  0  0
   17.3968  -11.3067    0.0000 O   0  0  0  0  0  0  0  0  0  0  0  0
   15.9679  -12.1316    0.0000 O   0  0  0  0  0  0  0  0  0  0  0  0
   14.5389  -11.3066    0.0000 C   0  0  0  0  0  0  0  0  0  0  0  0
  1  2  1  0  0  0  0
  1  3  1  0  0  0  0
  2  4  1  0  0  0  0
  3  5  1  0  0  0  0
  4  6  1  0  0  0  0
  5  6  1  0  0  0  0
  1  7  1  6  0  0  0
  2  8  1  1  0  0  0
  4  9  1  1  0  0  0
  6 10  1  6  0  0  0
  5 11  1  1  0  0  0
 12 13  1  0  0  0  0
 12 14  1  0  0  0  0
 13 15  1  0  0  0  0
 14 16  1  0  0  0  0
 15 17  1  0  0  0  0
 16 17  1  0  0  0  0
 12  9  1  6  0  0  0
 13 18  1  1  0  0  0
 15 19  1  1  0  0  0
 17 20  1  6  0  0  0
 16 21  1  1  0  0  0
 22 23  1  0  0  0  0
 22 24  1  0  0  0  0
 23 25  1  0  0  0  0
 24 26  1  0  0  0  0
 25 27  1  0  0  0  0
 26 27  1  0  0  0  0
 22 18  1  6  0  0  0
 23 28  1  1  0  0  0
 25 29  1  1  0  0  0
 27 30  1  6  0  0  0
 26 31  1  1  0  0  0
M  END
> <ID>
CHEBI:62056

> <NAME>
alpha-D-Rhap-(1->2)-alpha-D-Rhap-(1->3)-alpha-D-Rhap

> <DEFINITION>
A linear trisaccharide consisting of three α-D-rhamose units joined by an α-(1→2)- and an α-(1→3)- linkage.

> <STAR>
3

> <SYNONYM>
alpha-D-rhamnopyranosyl-(1->2)-alpha-D-rhamnopyranosyl-(1->3)-alpha-D-rhamnopyranose; alpha-D-Rha-(1->2)-alpha-D-Rha-(1->3)-alpha-D-Rha; alpha-D-Rha-(1-2)-alpha-D-Rha-(1-3)-alpha-D-Rha

> <IUPAC_NAME>
6-deoxy-alpha-D-mannopyranosyl-(1->2)-6-deoxy-alpha-D-mannopyranosyl-(1->3)-6-deoxy-alpha-D-mannopyranose

> <FORMULA>
C18H32O13

> <MASS>
456.43890

> <MONOISOTOPIC_MASS>
456.18429

> <CHARGE>
0

> <SMILES>
C[C@H]1O[C@H](O[C@@H]2[C@H](O[C@H](C)[C@@H](O)[C@@H]2O)O[C@H]2[C@H](O)[C@@H](C)O[C@H](O)[C@H]2O)[C@@H](O)[C@@H](O)[C@@H]1O

> <INCHI>
InChI=1S/C18H32O13/c1-4-7(19)10(22)12(24)17(28-4)31-15-11(23)8(20)5(2)29-18(15)30-14-9(21)6(3)27-16(26)13(14)25/h4-26H,1-3H3/t4-,5-,6-,7-,8-,9-,10+,11+,12+,13+,14+,15+,16+,17-,18-/m1/s1

> <INCHIKEY>
BJAJSBJJXYAWJW-NAVBLJQLSA-N

> <PUBMED_CITATION>
8932301

$$$$

Marvin  05111116142D          

 31 33  0  0  1  0            999 V2000
    7.0195   -4.0356    0.0000 C   0  0  2  0  0  0  0  0  0  0  0  0
    7.0196   -4.8606    0.0000 C   0  0  2  0  0  0  0  0  0  0  0  0
    6.3050   -3.6232    0.0000 O   0  0  0  0  0  0  0  0  0  0  0  0
    6.3050   -5.2732    0.0000 C   0  0  2  0  0  0  0  0  0  0  0  0
    5.5906   -4.0357    0.0000 C   0  0  1  0  0  0  0  0  0  0  0  0
    5.5906   -4.8607    0.0000 C   0  0  1  0  0  0  0  0  0  0  0  0
    7.7340   -3.6231    0.0000 O   0  0  0  0  0  0  0  0  0  0  0  0
    7.7340   -5.2731    0.0000 O   0  0  0  0  0  0  0  0  0  0  0  0
    6.3050   -6.0982    0.0000 O   0  0  0  0  0  0  0  0  0  0  0  0
    4.8761   -5.2732    0.0000 O   0  0  0  0  0  0  0  0  0  0  0  0
    4.8761   -3.6232    0.0000 C   0  0  0  0  0  0  0  0  0  0  0  0
    7.7386   -6.0932    0.0000 C   0  0  2  0  0  0  0  0  0  0  0  0
    8.4530   -6.5057    0.0000 C   0  0  2  0  0  0  0  0  0  0  0  0
    7.0241   -6.5057    0.0000 O   0  0  0  0  0  0  0  0  0  0  0  0
    8.4530   -7.3307    0.0000 C   0  0  2  0  0  0  0  0  0  0  0  0
    7.0241   -7.3307    0.0000 C   0  0  1  0  0  0  0  0  0  0  0  0
    7.7386   -7.7432    0.0000 C   0  0  1  0  0  0  0  0  0  0  0  0
    9.1675   -6.0932    0.0000 O   0  0  0  0  0  0  0  0  0  0  0  0
    9.1675   -7.7432    0.0000 O   0  0  0  0  0  0  0  0  0  0  0  0
    7.7386   -8.5682    0.0000 O   0  0  0  0  0  0  0  0  0  0  0  0
    6.3096   -7.7432    0.0000 C   0  0  0  0  0  0  0  0  0  0  0  0
    9.1692   -8.5753    0.0000 C   0  0  2  0  0  0  0  0  0  0  0  0
    9.8837   -8.9878    0.0000 C   0  0  2  0  0  0  0  0  0  0  0  0
    8.4547   -8.9880    0.0000 O   0  0  0  0  0  0  0  0  0  0  0  0
    9.8837   -9.8128    0.0000 C   0  0  2  0  0  0  0  0  0  0  0  0
    8.4548   -9.8129    0.0000 C   0  0  1  0  0  0  0  0  0  0  0  0
    9.1693  -10.2254    0.0000 C   0  0  1  0  0  0  0  0  0  0  0  0
   10.5981   -8.5753    0.0000 O   0  0  0  0  0  0  0  0  0  0  0  0
   10.5982  -10.2253    0.0000 O   0  0  0  0  0  0  0  0  0  0  0  0
    9.1693  -11.0504    0.0000 O   0  0  0  0  0  0  0  0  0  0  0  0
    7.7403  -10.2255    0.0000 C   0  0  0  0  0  0  0  0  0  0  0  0
  1  2  1  0  0  0  0
  1  3  1  0  0  0  0
  2  4  1  0  0  0  0
  3  5  1  0  0  0  0
  4  6  1  0  0  0  0
  5  6  1  0  0  0  0
  1  7  1  6  0  0  0
  2  8  1  1  0  0  0
  4  9  1  1  0  0  0
  6 10  1  6  0  0  0
  5 11  1  1  0  0  0
 12 13  1  0  0  0  0
 12 14  1  0  0  0  0
 13 15  1  0  0  0  0
 14 16  1  0  0  0  0
 15 17  1  0  0  0  0
 16 17  1  0  0  0  0
 13 18  1  1  0  0  0
 15 19  1  1  0  0  0
 17 20  1  6  0  0  0
 16 21  1  1  0  0  0
 12  8  1  6  0  0  0
 22 23  1  0  0  0  0
 22 24  1  0  0  0  0
 23 25  1  0  0  0  0
 24 26  1  0  0  0  0
 25 27  1  0  0  0  0
 26 27  1  0  0  0  0
 23 28  1  1  0  0  0
 25 29  1  1  0  0  0
 27 30  1  6  0  0  0
 26 31  1  1  0  0  0
 22 19  1  6  0  0  0
M  END
> <ID>
CHEBI:62058

> <NAME>
alpha-D-Rhap-(1->3)-alpha-D-Rhap-(1->2)-alpha-D-Rhap

> <DEFINITION>
A linear trisaccharide consisting of three α-D-rhamose units joined by an α-(1→3)- and an α-(1→2)- linkage.

> <STAR>
3

> <SYNONYM>
alpha-D-rhamnopyranosyl-(1->3)-alpha-D-rhamnopyranosyl-(1->2)-alpha-D-rhamnopyranose; alpha-D-Rha-(1->3)-alpha-D-Rha-(1->2)-alpha-D-Rha; alpha-D-Rha-(1-3)-alpha-D-Rha-(1-2)-alpha-D-Rha

> <IUPAC_NAME>
6-deoxy-alpha-D-mannopyranosyl-(1->3)-6-deoxy-alpha-D-mannopyranosyl-(1->2)-6-deoxy-alpha-D-mannopyranose

> <FORMULA>
C18H32O13

> <MASS>
456.43890

> <MONOISOTOPIC_MASS>
456.18429

> <CHARGE>
0

> <SMILES>
C[C@H]1O[C@H](O)[C@@H](O[C@H]2O[C@H](C)[C@@H](O)[C@H](O[C@H]3O[C@H](C)[C@@H](O)[C@H](O)[C@@H]3O)[C@@H]2O)[C@@H](O)[C@@H]1O

> <INCHI>
InChI=1S/C18H32O13/c1-4-8(20)11(23)15(16(26)27-4)31-18-13(25)14(9(21)6(3)29-18)30-17-12(24)10(22)7(19)5(2)28-17/h4-26H,1-3H3/t4-,5-,6-,7-,8-,9-,10+,11+,12+,13+,14+,15+,16+,17-,18-/m1/s1

> <INCHIKEY>
OSPGNJQPCHJVFG-NAVBLJQLSA-N

> <REAXYS_REGISTRY_NUMBER>
9597914

> <PUBMED_CITATION>
8932301

$$$$

Marvin  05121112572D          

 36 38  0  0  1  0            999 V2000
   18.7178  -27.8030    0.0000 C   0  0  2  0  0  0  0  0  0  0  0  0
   18.7178  -28.6280    0.0000 C   0  0  1  0  0  0  0  0  0  0  0  0
   18.0033  -27.3905    0.0000 O   0  0  0  0  0  0  0  0  0  0  0  0
   18.0033  -29.0405    0.0000 C   0  0  2  0  0  0  0  0  0  0  0  0
   17.2888  -27.8030    0.0000 C   0  0  1  0  0  0  0  0  0  0  0  0
   17.2888  -28.6280    0.0000 C   0  0  0  0  0  0  0  0  0  0  0  0
   19.4322  -27.3904    0.0000 O   0  0  0  0  0  0  0  0  0  0  0  0
   19.4322  -29.0405    0.0000 O   0  0  0  0  0  0  0  0  0  0  0  0
   18.0032  -29.8655    0.0000 O   0  0  0  0  0  0  0  0  0  0  0  0
   16.5744  -27.3905    0.0000 C   0  0  0  0  0  0  0  0  0  0  0  0
   15.8598  -27.8030    0.0000 O   0  0  0  0  0  0  0  0  0  0  0  0
   20.1468  -25.3279    0.0000 C   0  0  1  0  0  0  0  0  0  0  0  0
   20.1468  -26.1529    0.0000 C   0  0  1  0  0  0  0  0  0  0  0  0
   19.4323  -24.9154    0.0000 O   0  0  0  0  0  0  0  0  0  0  0  0
   19.4323  -26.5654    0.0000 C   0  0  2  0  0  0  0  0  0  0  0  0
   18.7178  -25.3279    0.0000 C   0  0  1  0  0  0  0  0  0  0  0  0
   18.7178  -26.1529    0.0000 C   0  0  2  0  0  0  0  0  0  0  0  0
   20.8613  -24.9154    0.0000 O   0  0  0  0  0  0  0  0  0  0  0  0
   20.8613  -26.5655    0.0000 O   0  0  0  0  0  0  0  0  0  0  0  0
   18.0034  -26.5654    0.0000 O   0  0  0  0  0  0  0  0  0  0  0  0
   18.0034  -24.9155    0.0000 C   0  0  0  0  0  0  0  0  0  0  0  0
   17.2889  -25.3280    0.0000 O   0  0  0  0  0  0  0  0  0  0  0  0
   23.0047  -23.6779    0.0000 C   0  0  1  0  0  0  0  0  0  0  0  0
   23.0047  -24.5029    0.0000 C   0  0  1  0  0  0  0  0  0  0  0  0
   22.2902  -23.2654    0.0000 O   0  0  0  0  0  0  0  0  0  0  0  0
   22.2902  -24.9154    0.0000 C   0  0  2  0  0  0  0  0  0  0  0  0
   21.5758  -23.6779    0.0000 C   0  0  1  0  0  0  0  0  0  0  0  0
   21.5758  -24.5029    0.0000 C   0  0  1  0  0  0  0  0  0  0  0  0
   23.7192  -23.2654    0.0000 N   0  0  0  0  0  0  0  0  0  0  0  0
   23.7192  -24.9155    0.0000 O   0  0  0  0  0  0  0  0  0  0  0  0
   22.2902  -25.7404    0.0000 O   0  0  0  0  0  0  0  0  0  0  0  0
   20.8613  -23.2654    0.0000 C   0  0  0  0  0  0  0  0  0  0  0  0
   20.1468  -23.6780    0.0000 O   0  0  0  0  0  0  0  0  0  0  0  0
   24.4337  -23.6779    0.0000 C   0  0  0  0  0  0  0  0  0  0  0  0
   25.1482  -23.2654    0.0000 O   0  0  0  0  0  0  0  0  0  0  0  0
   24.4337  -24.5029    0.0000 C   0  0  0  0  0  0  0  0  0  0  0  0
  1  2  1  0  0  0  0
  1  3  1  0  0  0  0
  2  4  1  0  0  0  0
  3  5  1  0  0  0  0
  4  6  1  0  0  0  0
  5  6  1  0  0  0  0
  1  7  1  6  0  0  0
  2  8  1  6  0  0  0
  4  9  1  1  0  0  0
  5 10  1  1  0  0  0
 11 10  1  0  0  0  0
 12 13  1  0  0  0  0
 12 14  1  0  0  0  0
 13 15  1  0  0  0  0
 14 16  1  0  0  0  0
 15 17  1  0  0  0  0
 16 17  1  0  0  0  0
 12 18  1  1  0  0  0
 13 19  1  6  0  0  0
 15  7  1  1  0  0  0
 17 20  1  1  0  0  0
 16 21  1  1  0  0  0
 22 21  1  0  0  0  0
 23 24  1  0  0  0  0
 23 25  1  0  0  0  0
 24 26  1  0  0  0  0
 25 27  1  0  0  0  0
 26 28  1  0  0  0  0
 27 28  1  0  0  0  0
 23 29  1  1  0  0  0
 24 30  1  6  0  0  0
 26 31  1  1  0  0  0
 28 18  1  6  0  0  0
 27 32  1  1  0  0  0
 33 32  1  0  0  0  0
 35 34  2  0  0  0  0
 36 34  1  0  0  0  0
 29 34  1  0  0  0  0
M  END
> <ID>
CHEBI:62060

> <NAME>
4-deoxy-alpha-D-Gal-(1->3)-beta-D-Gal-(1->4)-beta-D-Glc-NHAc

> <DEFINITION>
The N-glycosyl compound formed from the deoxy trisaccharide 4-deoxy-α-D-Gal-(1→3)-β-D-Gal-(1→4)-β-D-Glc by replacement of the OH at the anomeric centre of the glucose residue by an acetylamino group.

> <STAR>
3

> <SYNONYM>
3-deoxy-alpha-D-galactosyl-(1->3)-beta-D-galactosyl-(1->4)-N-acetyl-beta-D-glucosylamine

> <IUPAC_NAME>
4-deoxy-alpha-D-xylo-hexopyranosyl-(1->3)-beta-D-galactopyranosyl-(1->4)-N-acetyl-beta-D-glucopyranosylamine

> <FORMULA>
C20H35NO15

> <MASS>
529.48960

> <MONOISOTOPIC_MASS>
529.20067

> <CHARGE>
0

> <SMILES>
CC(=O)N[C@@H]1O[C@H](CO)[C@@H](O[C@@H]2O[C@H](CO)[C@H](O)[C@H](O[C@H]3O[C@H](CO)C[C@H](O)[C@H]3O)[C@H]2O)[C@H](O)[C@H]1O

> <INCHI>
InChI=1S/C20H35NO15/c1-6(25)21-18-14(30)13(29)16(10(5-24)33-18)35-20-15(31)17(12(28)9(4-23)34-20)36-19-11(27)8(26)2-7(3-22)32-19/h7-20,22-24,26-31H,2-5H2,1H3,(H,21,25)/t7-,8-,9+,10+,11+,12-,13+,14+,15+,16+,17-,18+,19+,20-/m0/s1

> <INCHIKEY>
KONSXHPNYHLRJI-SDZDCRGESA-N

> <REAXYS_REGISTRY_NUMBER>
9243401

> <PUBMED_CITATION>
12151204

$$$$

Marvin  05111116392D          

 31 33  0  0  1  0            999 V2000
    7.0195   -4.0356    0.0000 C   0  0  2  0  0  0  0  0  0  0  0  0
    7.0196   -4.8606    0.0000 C   0  0  2  0  0  0  0  0  0  0  0  0
    6.3050   -3.6232    0.0000 O   0  0  0  0  0  0  0  0  0  0  0  0
    6.3050   -5.2732    0.0000 C   0  0  2  0  0  0  0  0  0  0  0  0
    5.5906   -4.0357    0.0000 C   0  0  1  0  0  0  0  0  0  0  0  0
    5.5906   -4.8607    0.0000 C   0  0  1  0  0  0  0  0  0  0  0  0
    7.7340   -3.6231    0.0000 O   0  0  0  0  0  0  0  0  0  0  0  0
    7.7340   -5.2731    0.0000 O   0  0  0  0  0  0  0  0  0  0  0  0
    6.3050   -6.0982    0.0000 O   0  0  0  0  0  0  0  0  0  0  0  0
    4.8761   -5.2732    0.0000 O   0  0  0  0  0  0  0  0  0  0  0  0
    4.8761   -3.6232    0.0000 C   0  0  0  0  0  0  0  0  0  0  0  0
    8.4419   -5.6808    0.0000 C   0  0  2  0  0  0  0  0  0  0  0  0
    9.1563   -5.2682    0.0000 C   0  0  2  0  0  0  0  0  0  0  0  0
    8.4420   -6.5058    0.0000 O   0  0  0  0  0  0  0  0  0  0  0  0
    9.8708   -5.6807    0.0000 C   0  0  2  0  0  0  0  0  0  0  0  0
    9.1565   -6.9182    0.0000 C   0  0  1  0  0  0  0  0  0  0  0  0
    9.8709   -6.5056    0.0000 C   0  0  1  0  0  0  0  0  0  0  0  0
    9.1561   -4.4432    0.0000 O   0  0  0  0  0  0  0  0  0  0  0  0
   10.5852   -5.2680    0.0000 O   0  0  0  0  0  0  0  0  0  0  0  0
   10.5854   -6.9180    0.0000 O   0  0  0  0  0  0  0  0  0  0  0  0
    9.1566   -7.7432    0.0000 C   0  0  0  0  0  0  0  0  0  0  0  0
    5.5952   -6.5133    0.0000 C   0  0  2  0  0  0  0  0  0  0  0  0
    5.5952   -7.3383    0.0000 C   0  0  2  0  0  0  0  0  0  0  0  0
    4.8807   -6.1008    0.0000 O   0  0  0  0  0  0  0  0  0  0  0  0
    4.8807   -7.7508    0.0000 C   0  0  2  0  0  0  0  0  0  0  0  0
    4.1662   -6.5133    0.0000 C   0  0  1  0  0  0  0  0  0  0  0  0
    4.1662   -7.3383    0.0000 C   0  0  1  0  0  0  0  0  0  0  0  0
    6.3097   -7.7508    0.0000 O   0  0  0  0  0  0  0  0  0  0  0  0
    4.8807   -8.5758    0.0000 O   0  0  0  0  0  0  0  0  0  0  0  0
    3.4518   -7.7508    0.0000 O   0  0  0  0  0  0  0  0  0  0  0  0
    3.4518   -6.1008    0.0000 C   0  0  0  0  0  0  0  0  0  0  0  0
  1  2  1  0  0  0  0
  1  3  1  0  0  0  0
  2  4  1  0  0  0  0
  3  5  1  0  0  0  0
  4  6  1  0  0  0  0
  5  6  1  0  0  0  0
  1  7  1  6  0  0  0
  2  8  1  1  0  0  0
  4  9  1  1  0  0  0
  6 10  1  6  0  0  0
  5 11  1  1  0  0  0
 12 13  1  0  0  0  0
 12 14  1  0  0  0  0
 13 15  1  0  0  0  0
 14 16  1  0  0  0  0
 15 17  1  0  0  0  0
 16 17  1  0  0  0  0
 13 18  1  1  0  0  0
 15 19  1  1  0  0  0
 17 20  1  6  0  0  0
 16 21  1  1  0  0  0
 12  8  1  6  0  0  0
 22 23  1  0  0  0  0
 22 24  1  0  0  0  0
 23 25  1  0  0  0  0
 24 26  1  0  0  0  0
 25 27  1  0  0  0  0
 26 27  1  0  0  0  0
 23 28  1  1  0  0  0
 25 29  1  1  0  0  0
 27 30  1  6  0  0  0
 26 31  1  1  0  0  0
 22  9  1  6  0  0  0
M  END
> <ID>
CHEBI:62061

> <NAME>
alpha-D-Rhap-(1->2)-[alpha-D-Rhap-(1->3)]-alpha-D-Rhap

> <DEFINITION>
A trisaccharide consisting of two D-rhamnose units, each linked to a third α-D-rhamnose by an α-(1→2)- and an (1→3)- linkage, respectively.

> <STAR>
3

> <SYNONYM>
alpha-D-rhamnopyranosyl-(1->2)-[alpha-D-rhamnopyranosyl-(1->3)]-alpha-D-rhamnopyranose; alpha-D-Rha-(1->2)-[alpha-D-Rha-(1->3)]-alpha-D-Rha; alpha-D-Rha-(1-2)-[alpha-D-Rha-(1-3)]-alpha-D-Rha

> <IUPAC_NAME>
6-deoxy-alpha-D-mannopyranosyl-(1->2)-[6-deoxy-alpha-D-mannopyranosyl-(1->3)]-6-deoxy-alpha-D-mannopyranose

> <FORMULA>
C18H32O13

> <MASS>
456.43890

> <MONOISOTOPIC_MASS>
456.18429

> <CHARGE>
0

> <SMILES>
C[C@H]1O[C@H](O[C@@H]2[C@@H](O)O[C@H](C)[C@@H](O)[C@@H]2O[C@H]2O[C@H](C)[C@@H](O)[C@H](O)[C@@H]2O)[C@@H](O)[C@@H](O)[C@@H]1O

> <INCHI>
InChI=1S/C18H32O13/c1-4-7(19)10(22)12(24)17(28-4)30-14-9(21)6(3)27-16(26)15(14)31-18-13(25)11(23)8(20)5(2)29-18/h4-26H,1-3H3/t4-,5-,6-,7-,8-,9-,10+,11+,12+,13+,14+,15+,16+,17-,18-/m1/s1

> <INCHIKEY>
FLQJAMBLHDQHJK-NAVBLJQLSA-N

> <PUBMED_CITATION>
8932301

$$$$

Marvin  05121113022D          

 36 38  0  0  1  0            999 V2000
   16.6473  -28.0898    0.0000 C   0  0  2  0  0  0  0  0  0  0  0  0
   16.6473  -28.9148    0.0000 C   0  0  1  0  0  0  0  0  0  0  0  0
   15.9328  -27.6773    0.0000 O   0  0  0  0  0  0  0  0  0  0  0  0
   15.9328  -29.3273    0.0000 C   0  0  2  0  0  0  0  0  0  0  0  0
   15.2183  -28.0898    0.0000 C   0  0  1  0  0  0  0  0  0  0  0  0
   15.2183  -28.9148    0.0000 C   0  0  2  0  0  0  0  0  0  0  0  0
   17.3618  -27.6773    0.0000 O   0  0  0  0  0  0  0  0  0  0  0  0
   17.3618  -29.3273    0.0000 O   0  0  0  0  0  0  0  0  0  0  0  0
   15.9328  -30.1523    0.0000 O   0  0  0  0  0  0  0  0  0  0  0  0
   14.5039  -29.3273    0.0000 O   0  0  0  0  0  0  0  0  0  0  0  0
   14.5039  -27.6773    0.0000 C   0  0  0  0  0  0  0  0  0  0  0  0
   18.0763  -25.6148    0.0000 C   0  0  1  0  0  0  0  0  0  0  0  0
   18.0763  -26.4398    0.0000 C   0  0  1  0  0  0  0  0  0  0  0  0
   17.3618  -25.2023    0.0000 O   0  0  0  0  0  0  0  0  0  0  0  0
   17.3618  -26.8523    0.0000 C   0  0  2  0  0  0  0  0  0  0  0  0
   16.6474  -25.6148    0.0000 C   0  0  1  0  0  0  0  0  0  0  0  0
   16.6474  -26.4398    0.0000 C   0  0  2  0  0  0  0  0  0  0  0  0
   18.7908  -25.2023    0.0000 O   0  0  0  0  0  0  0  0  0  0  0  0
   18.7908  -26.8523    0.0000 O   0  0  0  0  0  0  0  0  0  0  0  0
   15.9329  -26.8523    0.0000 O   0  0  0  0  0  0  0  0  0  0  0  0
   15.9329  -25.2023    0.0000 C   0  0  0  0  0  0  0  0  0  0  0  0
   15.2184  -25.6148    0.0000 O   0  0  0  0  0  0  0  0  0  0  0  0
   20.9342  -23.9648    0.0000 C   0  0  1  0  0  0  0  0  0  0  0  0
   20.9342  -24.7898    0.0000 C   0  0  1  0  0  0  0  0  0  0  0  0
   20.2197  -23.5523    0.0000 O   0  0  0  0  0  0  0  0  0  0  0  0
   20.2197  -25.2023    0.0000 C   0  0  2  0  0  0  0  0  0  0  0  0
   19.5052  -23.9648    0.0000 C   0  0  1  0  0  0  0  0  0  0  0  0
   19.5052  -24.7898    0.0000 C   0  0  1  0  0  0  0  0  0  0  0  0
   21.6487  -23.5523    0.0000 N   0  0  0  0  0  0  0  0  0  0  0  0
   21.6487  -25.2023    0.0000 O   0  0  0  0  0  0  0  0  0  0  0  0
   20.2197  -26.0273    0.0000 O   0  0  0  0  0  0  0  0  0  0  0  0
   18.7908  -23.5523    0.0000 C   0  0  0  0  0  0  0  0  0  0  0  0
   18.0763  -23.9648    0.0000 O   0  0  0  0  0  0  0  0  0  0  0  0
   22.3631  -23.9648    0.0000 C   0  0  0  0  0  0  0  0  0  0  0  0
   22.3631  -24.7898    0.0000 C   0  0  0  0  0  0  0  0  0  0  0  0
   23.0776  -23.5523    0.0000 O   0  0  0  0  0  0  0  0  0  0  0  0
  1  2  1  0  0  0  0
  1  3  1  0  0  0  0
  2  4  1  0  0  0  0
  3  5  1  0  0  0  0
  4  6  1  0  0  0  0
  5  6  1  0  0  0  0
  1  7  1  6  0  0  0
  2  8  1  6  0  0  0
  4  9  1  1  0  0  0
  6 10  1  1  0  0  0
  5 11  1  1  0  0  0
 12 13  1  0  0  0  0
 12 14  1  0  0  0  0
 13 15  1  0  0  0  0
 14 16  1  0  0  0  0
 15 17  1  0  0  0  0
 16 17  1  0  0  0  0
 12 18  1  1  0  0  0
 13 19  1  6  0  0  0
 15  7  1  1  0  0  0
 17 20  1  1  0  0  0
 16 21  1  1  0  0  0
 22 21  1  0  0  0  0
 23 24  1  0  0  0  0
 23 25  1  0  0  0  0
 24 26  1  0  0  0  0
 25 27  1  0  0  0  0
 26 28  1  0  0  0  0
 27 28  1  0  0  0  0
 23 29  1  1  0  0  0
 24 30  1  6  0  0  0
 26 31  1  1  0  0  0
 28 18  1  6  0  0  0
 27 32  1  1  0  0  0
 33 32  1  0  0  0  0
 29 34  1  0  0  0  0
 34 35  1  0  0  0  0
 34 36  2  0  0  0  0
M  END
> <ID>
CHEBI:62062

> <NAME>
6-deoxy-alpha-D-Gal-(1->3)-beta-D-Gal-(1->4)-beta-D-Glc-NHAc

> <DEFINITION>
The N-glycosyl compound formed from the deoxy trisaccharide 6-deoxy-α-D-Gal-(1→3)-β-D-Gal-(1→4)-β-D-Glc by replacement of the OH at the anomeric centre of the glucose residue by an acetylamino group.

> <STAR>
3

> <SYNONYM>
6-deoxy-alpha-D-galactosyl-(1->3)-beta-D-galactosyl-(1->4)-N-acetyl-beta-D-glucosylamine

> <IUPAC_NAME>
6-deoxy-alpha-D-galactopyranosyl-(1->3)-beta-D-galactopyranosyl-(1->4)-N-acetyl-beta-D-glucopyranosylamine

> <FORMULA>
C20H35NO15

> <MASS>
529.48960

> <MONOISOTOPIC_MASS>
529.20067

> <CHARGE>
0

> <SMILES>
C[C@H]1O[C@H](O[C@H]2[C@@H](O)[C@@H](CO)O[C@@H](O[C@H]3[C@H](O)[C@@H](O)[C@H](NC(C)=O)O[C@@H]3CO)[C@@H]2O)[C@H](O)[C@@H](O)[C@H]1O

> <INCHI>
InChI=1S/C20H35NO15/c1-5-9(25)11(27)14(30)19(32-5)36-17-10(26)7(3-22)34-20(15(17)31)35-16-8(4-23)33-18(21-6(2)24)13(29)12(16)28/h5,7-20,22-23,25-31H,3-4H2,1-2H3,(H,21,24)/t5-,7-,8-,9+,10+,11+,12-,13-,14-,15-,16-,17+,18-,19-,20+/m1/s1

> <INCHIKEY>
MEQZUTPKVDSXMR-LPNIXPJGSA-N

> <REAXYS_REGISTRY_NUMBER>
9242890

> <PUBMED_CITATION>
12151204

$$$$

Marvin  05121111242D          

 25 26  0  0  1  0            999 V2000
    9.3566  -10.7202    0.0000 O   0  0  0  0  0  0  0  0  0  0  0  0
    8.6467  -11.1353    0.0000 C   0  0  2  0  0  0  0  0  0  0  0  0
    8.6467  -11.9603    0.0000 C   0  0  2  0  0  0  0  0  0  0  0  0
    7.9322  -10.7228    0.0000 O   0  0  0  0  0  0  0  0  0  0  0  0
    7.9322  -12.3728    0.0000 C   0  0  2  0  0  0  0  0  0  0  0  0
    7.2178  -11.1353    0.0000 C   0  0  1  0  0  0  0  0  0  0  0  0
    7.2178  -11.9603    0.0000 C   0  0  1  0  0  0  0  0  0  0  0  0
    9.3612  -12.3729    0.0000 O   0  0  0  0  0  0  0  0  0  0  0  0
    7.9322  -13.1978    0.0000 O   0  0  0  0  0  0  0  0  0  0  0  0
    6.5033  -12.3728    0.0000 O   0  0  0  0  0  0  0  0  0  0  0  0
    6.5033  -10.7228    0.0000 C   0  0  0  0  0  0  0  0  0  0  0  0
    5.7898  -12.7824    0.0000 C   0  0  1  0  0  0  0  0  0  0  0  0
    5.7898  -13.6074    0.0000 C   0  0  1  0  0  0  0  0  0  0  0  0
    5.0751  -12.3699    0.0000 O   0  0  0  0  0  0  0  0  0  0  0  0
    5.0751  -14.0199    0.0000 C   0  0  2  0  0  0  0  0  0  0  0  0
    4.3607  -12.7824    0.0000 C   0  0  1  0  0  0  0  0  0  0  0  0
    4.3607  -13.6074    0.0000 C   0  0  1  0  0  0  0  0  0  0  0  0
    6.5042  -14.0199    0.0000 N   0  0  0  0  0  0  0  0  0  0  0  0
    5.0751  -14.8449    0.0000 O   0  0  0  0  0  0  0  0  0  0  0  0
    3.6461  -14.0199    0.0000 O   0  0  0  0  0  0  0  0  0  0  0  0
    3.6461  -12.3699    0.0000 C   0  0  0  0  0  0  0  0  0  0  0  0
    2.9316  -12.7824    0.0000 O   0  0  0  0  0  0  0  0  0  0  0  0
    6.5042  -14.8449    0.0000 C   0  0  0  0  0  0  0  0  0  0  0  0
    7.2186  -15.2574    0.0000 O   0  0  0  0  0  0  0  0  0  0  0  0
    5.7897  -15.2574    0.0000 C   0  0  0  0  0  0  0  0  0  0  0  0
  2  3  1  0  0  0  0
  2  4  1  0  0  0  0
  3  5  1  0  0  0  0
  4  6  1  0  0  0  0
  5  7  1  0  0  0  0
  6  7  1  0  0  0  0
  3  8  1  1  0  0  0
  5  9  1  1  0  0  0
  7 10  1  6  0  0  0
  6 11  1  1  0  0  0
  2  1  1  6  0  0  0
 12 13  1  0  0  0  0
 12 14  1  0  0  0  0
 13 15  1  0  0  0  0
 14 16  1  0  0  0  0
 15 17  1  0  0  0  0
 16 17  1  0  0  0  0
 13 18  1  6  0  0  0
 15 19  1  1  0  0  0
 17 20  1  6  0  0  0
 16 21  1  1  0  0  0
 22 21  1  0  0  0  0
 24 23  2  0  0  0  0
 25 23  1  0  0  0  0
 18 23  1  0  0  0  0
 12 10  1  1  0  0  0
M  END
> <ID>
CHEBI:62066

> <NAME>
beta-D-GlcpNAc-(1->4)-alpha-D-Rhap

> <DEFINITION>
An amino disaccharide consisting of an α-D-rhamnos residue having an N-acetyl-β-D-glucosaminyl residue attached at the 4-position.

> <STAR>
3

> <SYNONYM>
beta-D-GlcNAc-(1->4)-alpha-D-Rha; beta-D-GlcNAc-(1-4)-alpha-D-Rha; 4-O-[2-(acetylamino)-2-deoxy-beta-D-glucopyranosyl]-alpha-D-rhamnopyranose

> <IUPAC_NAME>
4-O-[2-(acetylamino)-2-deoxy-beta-D-glucopyranosyl]-6-deoxy-alpha-D-mannopyranose

> <FORMULA>
C14H25NO10

> <MASS>
367.34900

> <MONOISOTOPIC_MASS>
367.14785

> <CHARGE>
0

> <SMILES>
C[C@H]1O[C@H](O)[C@@H](O)[C@@H](O)[C@@H]1O[C@@H]1O[C@H](CO)[C@@H](O)[C@H](O)[C@H]1NC(C)=O

> <INCHI>
InChI=1S/C14H25NO10/c1-4-12(10(20)11(21)13(22)23-4)25-14-7(15-5(2)17)9(19)8(18)6(3-16)24-14/h4,6-14,16,18-22H,3H2,1-2H3,(H,15,17)/t4-,6-,7-,8-,9-,10-,11+,12-,13+,14+/m1/s1

> <INCHIKEY>
AAXKQQFZVKGBOL-BJSAYXELSA-N

> <PUBMED_CITATION>
8932301

$$$$

Marvin  05121113542D          

 21 22  0  0  1  0            999 V2000
   21.5874  -10.0789    0.0000 C   0  0  2  0  0  0  0  0  0  0  0  0
   21.5874  -10.9039    0.0000 C   0  0  2  0  0  0  0  0  0  0  0  0
   20.8729   -9.6664    0.0000 O   0  0  0  0  0  0  0  0  0  0  0  0
   20.8729  -11.3164    0.0000 C   0  0  2  0  0  0  0  0  0  0  0  0
   20.1584  -10.0789    0.0000 C   0  0  1  0  0  0  0  0  0  0  0  0
   20.1584  -10.9039    0.0000 C   0  0  1  0  0  0  0  0  0  0  0  0
   22.3019   -9.6664    0.0000 O   0  0  0  0  0  0  0  0  0  0  0  0
   22.3019  -11.3165    0.0000 O   0  0  0  0  0  0  0  0  0  0  0  0
   20.8728  -12.1414    0.0000 O   0  0  0  0  0  0  0  0  0  0  0  0
   19.4439  -11.3164    0.0000 O   0  0  0  0  0  0  0  0  0  0  0  0
   19.4439   -9.6665    0.0000 C   0  0  0  0  0  0  0  0  0  0  0  0
   20.1583  -12.5540    0.0000 C   0  0  2  0  0  0  0  0  0  0  0  0
   20.1583  -13.3790    0.0000 C   0  0  2  0  0  0  0  0  0  0  0  0
   19.4438  -12.1415    0.0000 O   0  0  0  0  0  0  0  0  0  0  0  0
   19.4438  -13.7915    0.0000 C   0  0  2  0  0  0  0  0  0  0  0  0
   18.7294  -12.5540    0.0000 C   0  0  1  0  0  0  0  0  0  0  0  0
   18.7294  -13.3790    0.0000 C   0  0  1  0  0  0  0  0  0  0  0  0
   20.8728  -13.7915    0.0000 O   0  0  0  0  0  0  0  0  0  0  0  0
   19.4438  -14.6165    0.0000 O   0  0  0  0  0  0  0  0  0  0  0  0
   18.0150  -13.7914    0.0000 O   0  0  0  0  0  0  0  0  0  0  0  0
   18.0150  -12.1415    0.0000 C   0  0  0  0  0  0  0  0  0  0  0  0
  1  2  1  0  0  0  0
  1  3  1  0  0  0  0
  2  4  1  0  0  0  0
  3  5  1  0  0  0  0
  4  6  1  0  0  0  0
  5  6  1  0  0  0  0
  1  7  1  6  0  0  0
  2  8  1  1  0  0  0
  4  9  1  1  0  0  0
  6 10  1  6  0  0  0
  5 11  1  1  0  0  0
 12 13  1  0  0  0  0
 12 14  1  0  0  0  0
 13 15  1  0  0  0  0
 14 16  1  0  0  0  0
 15 17  1  0  0  0  0
 16 17  1  0  0  0  0
 12  9  1  6  0  0  0
 13 18  1  1  0  0  0
 15 19  1  1  0  0  0
 17 20  1  6  0  0  0
 16 21  1  1  0  0  0
M  END
> <ID>
CHEBI:62068

> <NAME>
alpha-D-Rhap-(1->3)-alpha-D-Rhap

> <DEFINITION>
A glycosylrhamnose consisting of α-D-rhamnose having an α-D-rhamnosyl residue attached at the 3-position.

> <STAR>
3

> <SYNONYM>
alpha-D-Rha-(1->3)-alpha-D-Rha; alpha-D-Rha-(1-3)-alpha-D-Rha; 3-O-(alpha-D-rhamnopyranosyl)-alpha-D-rhamnopyranose

> <IUPAC_NAME>
6-deoxy-3-O-(6-deoxy-alpha-D-mannopyranosyl)-alpha-D-mannopyranose

> <FORMULA>
C12H22O9

> <MASS>
310.29770

> <MONOISOTOPIC_MASS>
310.12638

> <CHARGE>
0

> <SMILES>
C[C@H]1O[C@H](O[C@H]2[C@H](O)[C@@H](C)O[C@H](O)[C@H]2O)[C@@H](O)[C@@H](O)[C@@H]1O

> <INCHI>
InChI=1S/C12H22O9/c1-3-5(13)7(15)8(16)12(20-3)21-10-6(14)4(2)19-11(18)9(10)17/h3-18H,1-2H3/t3-,4-,5-,6-,7+,8+,9+,10+,11+,12-/m1/s1

> <INCHIKEY>
CQHWROCHCWOEOA-LBGGPIGOSA-N

> <PUBMED_CITATION>
8932301

$$$$

Marvin  05131113202D          

 43 44  0  0  1  0            999 V2000
   13.9699   -8.0461    0.0000 O   0  0  0  0  0  0  0  0  0  0  0  0
   13.2555   -8.4586    0.0000 C   0  0  0  0  0  0  0  0  0  0  0  0
   13.2555   -9.2837    0.0000 C   0  0  0  0  0  0  0  0  0  0  0  0
   12.5410   -9.6961    0.0000 C   0  0  1  0  0  0  0  0  0  0  0  0
   11.8265   -9.2836    0.0000 C   0  0  2  0  0  0  0  0  0  0  0  0
   12.5410   -8.0461    0.0000 O   0  0  0  0  0  0  0  0  0  0  0  0
   11.8266   -8.4586    0.0000 C   0  0  1  0  0  0  0  0  0  0  0  0
   12.5530  -10.5658    0.0000 O   0  0  0  0  0  0  0  0  0  0  0  0
   13.2555   -7.6337    0.0000 C   0  0  0  0  0  0  0  0  0  0  0  0
   12.5410   -7.2211    0.0000 O   0  0  0  0  0  0  0  0  0  0  0  0
   13.9701   -7.2211    0.0000 O   0  0  0  0  0  0  0  0  0  0  0  0
   11.1120   -9.6960    0.0000 N   0  0  0  0  0  0  0  0  0  0  0  0
   11.1119  -10.5211    0.0000 C   0  0  0  0  0  0  0  0  0  0  0  0
   10.3974  -10.9336    0.0000 C   0  0  0  0  0  0  0  0  0  0  0  0
   11.8264  -10.9336    0.0000 O   0  0  0  0  0  0  0  0  0  0  0  0
   11.1121   -8.0461    0.0000 C   0  0  2  0  0  0  0  0  0  0  0  0
   11.1122   -7.2211    0.0000 O   0  0  0  0  0  0  0  0  0  0  0  0
   10.3977   -8.4585    0.0000 C   0  0  1  0  0  0  0  0  0  0  0  0
    9.6832   -8.0460    0.0000 C   0  0  0  0  0  0  0  0  0  0  0  0
   10.3976   -9.2835    0.0000 O   0  0  0  0  0  0  0  0  0  0  0  0
   11.8266   -7.6384    0.0000 H   0  0  0  0  0  0  0  0  0  0  0  0
    9.6813   -7.2163    0.0000 O   0  0  0  0  0  0  0  0  0  0  0  0
    8.7100  -10.0837    0.0000 C   0  0  2  0  0  0  0  0  0  0  0  0
    8.7100  -10.9088    0.0000 C   0  0  0  0  0  0  0  0  0  0  0  0
    7.9955  -11.3212    0.0000 C   0  0  1  0  0  0  0  0  0  0  0  0
    7.2810  -10.9087    0.0000 C   0  0  2  0  0  0  0  0  0  0  0  0
    7.9955   -9.6712    0.0000 O   0  0  0  0  0  0  0  0  0  0  0  0
    7.2811  -10.0837    0.0000 C   0  0  1  0  0  0  0  0  0  0  0  0
    8.0075  -12.1909    0.0000 O   0  0  0  0  0  0  0  0  0  0  0  0
    8.7100   -9.2588    0.0000 C   0  0  0  0  0  0  0  0  0  0  0  0
    7.9955   -8.8462    0.0000 O   0  0  0  0  0  0  0  0  0  0  0  0
    9.4246   -8.8462    0.0000 O   0  0  0  0  0  0  0  0  0  0  0  0
    6.5665  -11.3210    0.0000 N   0  0  0  0  0  0  0  0  0  0  0  0
    6.5664  -12.1462    0.0000 C   0  0  0  0  0  0  0  0  0  0  0  0
    5.8519  -12.5587    0.0000 C   0  0  0  0  0  0  0  0  0  0  0  0
    7.2809  -12.5587    0.0000 O   0  0  0  0  0  0  0  0  0  0  0  0
    6.5666   -9.6712    0.0000 C   0  0  2  0  0  0  0  0  0  0  0  0
    6.5667   -8.8462    0.0000 O   0  0  0  0  0  0  0  0  0  0  0  0
    5.8522  -10.0835    0.0000 C   0  0  1  0  0  0  0  0  0  0  0  0
    5.1377   -9.6710    0.0000 C   0  0  0  0  0  0  0  0  0  0  0  0
    5.8521  -10.9085    0.0000 O   0  0  0  0  0  0  0  0  0  0  0  0
    7.2811   -9.2634    0.0000 H   0  0  0  0  0  0  0  0  0  0  0  0
    5.1373   -8.8464    0.0000 O   0  0  0  0  0  0  0  0  0  0  0  0
  4  3  1  0  0  0  0
  2  3  1  0  0  0  0
  5  4  1  0  0  0  0
  6  2  1  0  0  0  0
  7  5  1  0  0  0  0
  7  6  1  0  0  0  0
  4  8  1  6  0  0  0
  2  1  1  0  0  0  0
 10  9  2  0  0  0  0
 11  9  1  0  0  0  0
  2  9  1  0  0  0  0
  5 12  1  1  0  0  0
 12 13  1  0  0  0  0
 13 14  1  0  0  0  0
 13 15  2  0  0  0  0
  7 16  1  0  0  0  0
 16 17  1  1  0  0  0
 16 18  1  0  0  0  0
 18 19  1  0  0  0  0
 18 20  1  6  0  0  0
  7 21  1  1  0  0  0
 19 22  1  0  0  0  0
 25 24  1  0  0  0  0
 23 24  1  0  0  0  0
 26 25  1  0  0  0  0
 27 23  1  0  0  0  0
 28 26  1  0  0  0  0
 28 27  1  0  0  0  0
 25 29  1  6  0  0  0
 31 30  2  0  0  0  0
 32 30  1  0  0  0  0
 23 30  1  1  0  0  0
 26 33  1  1  0  0  0
 33 34  1  0  0  0  0
 34 35  1  0  0  0  0
 34 36  2  0  0  0  0
 28 37  1  0  0  0  0
 37 38  1  1  0  0  0
 37 39  1  0  0  0  0
 39 40  1  0  0  0  0
 39 41  1  6  0  0  0
 28 42  1  1  0  0  0
 23 20  1  6  0  0  0
 40 43  1  0  0  0  0
M  END
> <ID>
CHEBI:62078

> <NAME>
alpha-Neu5Ac-(2->8)-Neu5Ac

> <DEFINITION>
An amino disaccharide consisting of two N-acetylneuraminic acid residues joined by an (α-2→8)-linkage.

> <STAR>
3

> <SYNONYM>
NeuAc(alpha2->8)NeuAc; NeuAc(alpha2-8)NeuAc; (6R)-5-(acetylamino)-6-[(1S,2R)-2-({(6R)-5-(acetylamino)-3,5-dideoxy-6-[(1R,2R)-1,2,3-trihydroxypropyl]-beta-L-threo-hex-2-ulopyranonosyl}oxy)-1,3-dihydroxypropyl]-3,5-dideoxy-L-threo-hex-2-ulopyranosonic acid

> <IUPAC_NAME>
5-acetamido-3,5-dideoxy-D-glycero-alpha-D-galacto-non-2-ulopyranonosyl-(2->8)-5-acetamido-3,5-dideoxy-D-glycero-D-galacto-non-2-ulopyranosonic acid

> <FORMULA>
C22H36N2O17

> <MASS>
600.52440

> <MONOISOTOPIC_MASS>
600.20140

> <CHARGE>
0

> <SMILES>
[H][C@]1(OC(O)(C[C@H](O)[C@H]1NC(C)=O)C(O)=O)[C@H](O)[C@@H](CO)O[C@@]1(C[C@H](O)[C@@H](NC(C)=O)[C@@]([H])(O1)[C@H](O)[C@H](O)CO)C(O)=O

> <INCHI>
InChI=1S/C22H36N2O17/c1-7(27)23-13-9(29)3-21(38,19(34)35)40-18(13)16(33)12(6-26)39-22(20(36)37)4-10(30)14(24-8(2)28)17(41-22)15(32)11(31)5-25/h9-18,25-26,29-33,38H,3-6H2,1-2H3,(H,23,27)(H,24,28)(H,34,35)(H,36,37)/t9-,10-,11+,12+,13+,14+,15+,16+,17+,18+,21?,22+/m0/s1

> <INCHIKEY>
LWXBZLHHWJUOSV-LSLZQTMLSA-N

> <PUBMED_CITATION>
15289269

$$$$

Marvin  05161110242D          

 23 23  0  0  1  0            999 V2000
   11.3337   -3.7422    0.0000 O   0  0  0  0  0  0  0  0  0  0  0  0
   10.6191   -4.1547    0.0000 C   0  0  2  0  0  0  0  0  0  0  0  0
   10.6191   -4.9797    0.0000 C   0  0  1  0  0  0  0  0  0  0  0  0
   11.3337   -5.3922    0.0000 C   0  0  2  0  0  0  0  0  0  0  0  0
   12.0482   -4.9797    0.0000 C   0  0  0  0  0  0  0  0  0  0  0  0
   12.7627   -3.7423    0.0000 C   0  0  0  0  0  0  0  0  0  0  0  0
   11.3336   -6.2172    0.0000 O   0  0  0  0  0  0  0  0  0  0  0  0
   13.4770   -4.1548    0.0000 O   0  0  0  0  0  0  0  0  0  0  0  0
   12.7627   -2.9173    0.0000 O   0  0  0  0  0  0  0  0  0  0  0  0
    9.9047   -3.7421    0.0000 C   0  0  1  0  0  0  0  0  0  0  0  0
    9.1902   -4.1546    0.0000 C   0  0  1  0  0  0  0  0  0  0  0  0
    9.9048   -2.9172    0.0000 O   0  0  0  0  0  0  0  0  0  0  0  0
    8.4758   -3.7421    0.0000 C   0  0  0  0  0  0  0  0  0  0  0  0
    9.1902   -4.9797    0.0000 O   0  0  0  0  0  0  0  0  0  0  0  0
    7.7613   -4.1545    0.0000 O   0  0  0  0  0  0  0  0  0  0  0  0
   10.6192   -3.3297    0.0000 H   0  0  0  0  0  0  0  0  0  0  0  0
   12.0482   -4.1547    0.0000 C   0  0  1  0  0  0  0  0  0  0  0  0
   12.0482   -3.3297    0.0000 O   0  0  0  0  0  0  0  0  0  0  0  0
    9.9047   -5.3922    0.0000 N   0  0  0  0  0  0  0  0  0  0  0  0
   10.6192   -6.6297    0.0000 C   0  0  0  0  0  0  0  0  0  0  0  0
    9.9047   -6.2172    0.0000 C   0  0  0  0  0  0  0  0  0  0  0  0
    9.1902   -6.6297    0.0000 O   0  0  0  0  0  0  0  0  0  0  0  0
   10.6192   -7.4548    0.0000 O   0  0  0  0  0  0  0  0  0  0  0  0
  2  1  1  0  0  0  0
  2 10  1  0  0  0  0
  2 16  1  1  0  0  0
  2  3  1  0  0  0  0
  3 19  1  1  0  0  0
  3  4  1  0  0  0  0
  4  7  1  6  0  0  0
  4  5  1  0  0  0  0
  1 17  1  0  0  0  0
 17  5  1  0  0  0  0
 17  6  1  0  0  0  0
  6  8  1  0  0  0  0
  6  9  2  0  0  0  0
 10 11  1  0  0  0  0
 10 12  1  1  0  0  0
 11 13  1  0  0  0  0
 11 14  1  6  0  0  0
 13 15  1  0  0  0  0
 17 18  1  1  0  0  0
 19 21  1  0  0  0  0
 21 20  1  0  0  0  0
 21 22  2  0  0  0  0
 20 23  1  0  0  0  0
M  END
> <ID>
CHEBI:62084

> <NAME>
N-glycoloyl-beta-neuraminic acid

> <DEFINITION>
An N-acylneuraminic acid in which the acyl substituent on nitrogen is glycolyl and which has β-configuration at the anomeric centre.

> <STAR>
3

> <SYNONYM>
NGNA; NeuGc; Neu5Gc; N-Glycolylneuraminic acid; N-glycolyl-beta-neuraminic acid; GcNeu

> <IUPAC_NAME>
3,5-dideoxy-5-(glycoloylamino)-D-glycero-beta-D-galacto-non-2-ulopyranosonic acid

> <FORMULA>
C11H19NO10

> <MASS>
325.26930

> <MONOISOTOPIC_MASS>
325.10090

> <CHARGE>
0

> <SMILES>
[H][C@]1(O[C@@](O)(C[C@H](O)[C@H]1NC(=O)CO)C(O)=O)[C@H](O)[C@H](O)CO

> <INCHI>
InChI=1S/C11H19NO10/c13-2-5(16)8(18)9-7(12-6(17)3-14)4(15)1-11(21,22-9)10(19)20/h4-5,7-9,13-16,18,21H,1-3H2,(H,12,17)(H,19,20)/t4-,5+,7+,8+,9+,11-/m0/s1

> <INCHIKEY>
FDJKUWYYUZCUJX-AJKRCSPLSA-N

> <CAS_REGISTRY_NUMBER>
1113-83-3

> <REAXYS_REGISTRY_NUMBER>
8136953

> <CHEMIDPLUS>
1113-83-3

> <HMDB_ACCESSION>
HMDB0000833

> <WIKIPEDIA_ACCESSION>
N-Glycolylneuraminic_acid

> <PUBMED_CITATION>
12213333; 12371933; 21496117; 24986655; 27373998; 8448384

$$$$

Marvin  05161114372D          

 43 44  0  0  1  0            999 V2000
   11.4998  -10.7114    0.0000 O   0  0  0  0  0  0  0  0  0  0  0  0
   10.6477  -11.3711    0.0000 C   0  0  1  0  0  0  0  0  0  0  0  0
    9.9606  -10.9588    0.0000 O   0  0  0  0  0  0  0  0  0  0  0  0
   10.6477  -12.1680    0.0000 C   0  0  0  0  0  0  0  0  0  0  0  0
   11.3349  -11.7284    0.0000 C   0  0  0  0  0  0  0  0  0  0  0  0
    9.2461  -11.3711    0.0000 C   0  0  2  0  0  0  0  0  0  0  0  0
    9.9606  -12.5803    0.0000 C   0  0  1  0  0  0  0  0  0  0  0  0
   12.0220  -11.3161    0.0000 O   0  0  0  0  0  0  0  0  0  0  0  0
   11.3349  -12.5529    0.0000 O   0  0  0  0  0  0  0  0  0  0  0  0
    9.2461  -12.1680    0.0000 C   0  0  1  0  0  0  0  0  0  0  0  0
    9.9606  -13.3774    0.0000 O   0  0  0  0  0  0  0  0  0  0  0  0
    8.5315  -10.9313    0.0000 C   0  0  1  0  0  0  0  0  0  0  0  0
    8.5315  -10.1067    0.0000 C   0  0  2  0  0  0  0  0  0  0  0  0
    7.7894   -9.6670    0.0000 O   0  0  0  0  0  0  0  0  0  0  0  0
    8.5315  -11.7833    0.0000 H   0  0  0  0  0  0  0  0  0  0  0  0
    7.7894  -11.3711    0.0000 O   0  0  0  0  0  0  0  0  0  0  0  0
    9.2461   -9.6670    0.0000 C   0  0  0  0  0  0  0  0  0  0  0  0
    8.5315  -12.5803    0.0000 N   0  0  0  0  0  0  0  0  0  0  0  0
    8.5315  -13.4324    0.0000 C   0  0  0  0  0  0  0  0  0  0  0  0
    7.7894  -13.8447    0.0000 C   0  0  0  0  0  0  0  0  0  0  0  0
    9.2461  -13.8447    0.0000 O   0  0  0  0  0  0  0  0  0  0  0  0
    9.2461   -8.8424    0.0000 O   0  0  0  0  0  0  0  0  0  0  0  0
    7.0748   -9.2547    0.0000 C   0  0  1  0  0  0  0  0  0  0  0  0
    6.3876   -8.8424    0.0000 O   0  0  0  0  0  0  0  0  0  0  0  0
    7.0748  -10.0518    0.0000 C   0  0  0  0  0  0  0  0  0  0  0  0
    5.6730   -9.2547    0.0000 C   0  0  2  0  0  0  0  0  0  0  0  0
    6.3876  -10.4641    0.0000 C   0  0  1  0  0  0  0  0  0  0  0  0
    5.6730  -10.0518    0.0000 C   0  0  1  0  0  0  0  0  0  0  0  0
    6.3876  -11.2610    0.0000 O   0  0  0  0  0  0  0  0  0  0  0  0
    4.9585   -8.8149    0.0000 C   0  0  1  0  0  0  0  0  0  0  0  0
    4.9585   -7.9905    0.0000 C   0  0  1  0  0  0  0  0  0  0  0  0
    4.2163   -7.5507    0.0000 C   0  0  0  0  0  0  0  0  0  0  0  0
    4.2163   -6.6986    0.0000 O   0  0  0  0  0  0  0  0  0  0  0  0
    4.9585   -9.6670    0.0000 H   0  0  0  0  0  0  0  0  0  0  0  0
    4.2163   -9.2547    0.0000 O   0  0  0  0  0  0  0  0  0  0  0  0
    5.6730   -7.5507    0.0000 O   0  0  0  0  0  0  0  0  0  0  0  0
    4.9585  -10.4641    0.0000 N   0  0  0  0  0  0  0  0  0  0  0  0
    4.9585  -11.3161    0.0000 C   0  0  0  0  0  0  0  0  0  0  0  0
    4.2163  -11.7284    0.0000 C   0  0  0  0  0  0  0  0  0  0  0  0
    5.6730  -11.7284    0.0000 O   0  0  0  0  0  0  0  0  0  0  0  0
    7.4871   -8.5401    0.0000 C   0  0  0  0  0  0  0  0  0  0  0  0
    8.3116   -8.5401    0.0000 O   0  0  0  0  0  0  0  0  0  0  0  0
    7.0748   -7.8255    0.0000 O   0  0  0  0  0  0  0  0  0  0  0  0
  2  3  1  0  0  0  0
  2  1  1  6  0  0  0
  2  4  1  0  0  0  0
  2  5  1  1  0  0  0
  3  6  1  0  0  0  0
  4  7  1  0  0  0  0
  5  8  1  0  0  0  0
  5  9  2  0  0  0  0
  6 10  1  0  0  0  0
  7 11  1  6  0  0  0
  7 10  1  0  0  0  0
  6 12  1  0  0  0  0
 12 13  1  0  0  0  0
 13 14  1  6  0  0  0
  6 15  1  1  0  0  0
 12 16  1  6  0  0  0
 13 17  1  0  0  0  0
 10 18  1  1  0  0  0
 18 19  1  0  0  0  0
 19 20  1  0  0  0  0
 19 21  2  0  0  0  0
 17 22  1  0  0  0  0
 23 24  1  0  0  0  0
 23 25  1  0  0  0  0
 24 26  1  0  0  0  0
 25 27  1  0  0  0  0
 26 28  1  0  0  0  0
 27 29  1  6  0  0  0
 27 28  1  0  0  0  0
 26 30  1  0  0  0  0
 30 31  1  0  0  0  0
 31 32  1  0  0  0  0
 32 33  1  0  0  0  0
 26 34  1  1  0  0  0
 30 35  1  6  0  0  0
 31 36  1  1  0  0  0
 28 37  1  1  0  0  0
 37 38  1  0  0  0  0
 38 39  1  0  0  0  0
 38 40  2  0  0  0  0
 23 41  1  1  0  0  0
 23 14  1  6  0  0  0
 41 42  2  0  0  0  0
 41 43  1  0  0  0  0
M  END
> <ID>
CHEBI:62097

> <NAME>
alpha-Neup5Ac-(2->8)-alpha-Neup5Ac

> <DEFINITION>
α-Neu5Ac-(2→8)-Neu5Ac in which the configuration at the anomeric carbon atom of the residue at the reducing end is α

> <STAR>
3

> <SECONDARY_ID>
CHEBI:72320

> <SYNONYM>
NeuAc(alpha2->8)NeuAcalpha; NeuAc(alpha2->8)NeuAc; NeuAc(alpha2-8)NeuAcbeta; NeuAc(alpha2-8)NeuAc; Neu5Acalpha2-8Neu5Acalpha; DS; alpha-NeupNAc-(2->8)-alpha-NeupNAc; alpha-NeuAc-(2->8)-alpha-NeuAc; alpha-Neu5Ac-(2->8)-alpha-Neu5Ac; (6R)-5-(acetylamino)-6-[(1S,2R)-2-({(6R)-5-(acetylamino)-3,5-dideoxy-6-[(1R,2R)-1,2,3-trihydroxypropyl]-beta-L-threo-hex-2-ulopyranonosyl}oxy)-1,3-dihydroxypropyl]-3,5-dideoxy-beta-L-threo-hex-2-ulopyranosonic acid

> <IUPAC_NAME>
5-acetamido-3,5-dideoxy-D-glycero-alpha-D-galacto-non-2-ulopyranonosyl-(2->8)-5-acetamido-3,5-dideoxy-D-glycero-alpha-D-galacto-non-2-ulopyranosonic acid; (6R)-5-acetamido-6-[(1S,2R)-2-({(6R)-5-acetamido-3,5-dideoxy-6-[(1R,2R)-1,2,3-trihydroxypropyl]-beta-L-threo-hex-2-ulopyranonosyl}oxy)-1,3-dihydroxypropyl]-3,5-dideoxy-beta-L-threo-hex-2-ulopyranosonic acid; (6R)-5-acetamido-6-[(1S,2R)-2-({(6R)-5-acetamido-3,5-dideoxy-6-[(1R,2R)-1,2,3-trihydroxypropyl]-alpha-L-threo-hex-2-ulopyranonosyl}oxy)-1,3-dihydroxypropyl]-3,5-dideoxy-alpha-L-threo-hex-2-ulopyranosonic acid

> <FORMULA>
C22H36N2O17

> <MASS>
600.52440

> <MONOISOTOPIC_MASS>
600.20140

> <CHARGE>
0

> <SMILES>
[H][C@]1(O[C@](O)(C[C@H](O)[C@H]1NC(C)=O)C(O)=O)[C@H](O)[C@@H](CO)O[C@@]1(C[C@H](O)[C@@H](NC(C)=O)[C@@]([H])(O1)[C@H](O)[C@H](O)CO)C(O)=O

> <INCHI>
InChI=1S/C22H36N2O17/c1-7(27)23-13-9(29)3-21(38,19(34)35)40-18(13)16(33)12(6-26)39-22(20(36)37)4-10(30)14(24-8(2)28)17(41-22)15(32)11(31)5-25/h9-18,25-26,29-33,38H,3-6H2,1-2H3,(H,23,27)(H,24,28)(H,34,35)(H,36,37)/t9-,10-,11+,12+,13+,14+,15+,16+,17+,18+,21+,22+/m0/s1

> <INCHIKEY>
LWXBZLHHWJUOSV-VCVJBUKQSA-N

> <REAXYS_REGISTRY_NUMBER>
8963482

> <PUBMED_CITATION>
14960498; 31537530; 19443021

$$$$

Marvin  05161115532D          

 47 50  0  0  1  0            999 V2000
   10.0175   -8.1009    0.0000 C   0  0  2  0  0  0  0  0  0  0  0  0
   10.0175   -8.9259    0.0000 C   0  0  1  0  0  0  0  0  0  0  0  0
    9.3030   -7.6884    0.0000 O   0  0  0  0  0  0  0  0  0  0  0  0
    9.3030   -9.3384    0.0000 C   0  0  2  0  0  0  0  0  0  0  0  0
    8.5886   -8.1009    0.0000 C   0  0  1  0  0  0  0  0  0  0  0  0
    8.5886   -8.9259    0.0000 C   0  0  2  0  0  0  0  0  0  0  0  0
   10.7319   -7.6884    0.0000 O   0  0  0  0  0  0  0  0  0  0  0  0
   10.7319   -9.3384    0.0000 O   0  0  0  0  0  0  0  0  0  0  0  0
    9.3030  -10.1634    0.0000 O   0  0  0  0  0  0  0  0  0  0  0  0
    7.8740   -9.3384    0.0000 O   0  0  0  0  0  0  0  0  0  0  0  0
    7.8740   -7.6884    0.0000 C   0  0  0  0  0  0  0  0  0  0  0  0
    7.1596   -8.1009    0.0000 O   0  0  0  0  0  0  0  0  0  0  0  0
   11.4465   -5.6259    0.0000 C   0  0  1  0  0  0  0  0  0  0  0  0
   11.4465   -6.4509    0.0000 C   0  0  1  0  0  0  0  0  0  0  0  0
   10.7320   -5.2134    0.0000 O   0  0  0  0  0  0  0  0  0  0  0  0
   10.7320   -6.8634    0.0000 C   0  0  2  0  0  0  0  0  0  0  0  0
   10.0175   -5.6259    0.0000 C   0  0  1  0  0  0  0  0  0  0  0  0
   10.0175   -6.4509    0.0000 C   0  0  2  0  0  0  0  0  0  0  0  0
   12.1609   -5.2134    0.0000 O   0  0  0  0  0  0  0  0  0  0  0  0
   12.1609   -6.8634    0.0000 O   0  0  0  0  0  0  0  0  0  0  0  0
    9.3031   -6.8634    0.0000 O   0  0  0  0  0  0  0  0  0  0  0  0
    9.3031   -5.2134    0.0000 C   0  0  0  0  0  0  0  0  0  0  0  0
    8.5886   -5.6259    0.0000 O   0  0  0  0  0  0  0  0  0  0  0  0
   14.3044   -3.9759    0.0000 C   0  0  0  0  0  0  0  0  0  0  0  0
   14.3044   -4.8009    0.0000 C   0  0  1  0  0  0  0  0  0  0  0  0
   13.5899   -3.5634    0.0000 O   0  0  0  0  0  0  0  0  0  0  0  0
   13.5899   -5.2134    0.0000 C   0  0  2  0  0  0  0  0  0  0  0  0
   12.8755   -3.9759    0.0000 C   0  0  1  0  0  0  0  0  0  0  0  0
   12.8755   -4.8009    0.0000 C   0  0  1  0  0  0  0  0  0  0  0  0
   15.0188   -3.5634    0.0000 O   0  0  0  0  0  0  0  0  0  0  0  0
   15.0188   -5.2134    0.0000 N   0  0  0  0  0  0  0  0  0  0  0  0
   13.5899   -6.0384    0.0000 O   0  0  0  0  0  0  0  0  0  0  0  0
   12.1609   -3.5634    0.0000 C   0  0  0  0  0  0  0  0  0  0  0  0
   11.4465   -3.9759    0.0000 O   0  0  0  0  0  0  0  0  0  0  0  0
   15.0188   -6.0384    0.0000 C   0  0  0  0  0  0  0  0  0  0  0  0
   14.4212   -6.3317    0.0000 O   0  0  0  0  0  0  0  0  0  0  0  0
   15.6363   -6.5503    0.0000 C   0  0  0  0  0  0  0  0  0  0  0  0
   12.5735   -7.5778    0.0000 C   0  0  1  0  0  0  0  0  0  0  0  0
   13.3985   -7.5778    0.0000 C   0  0  2  0  0  0  0  0  0  0  0  0
   12.1610   -8.2924    0.0000 O   0  0  0  0  0  0  0  0  0  0  0  0
   13.8110   -8.2924    0.0000 C   0  0  1  0  0  0  0  0  0  0  0  0
   12.5735   -9.0068    0.0000 C   0  0  2  0  0  0  0  0  0  0  0  0
   13.3985   -9.0068    0.0000 C   0  0  1  0  0  0  0  0  0  0  0  0
   13.8110   -6.8634    0.0000 O   0  0  0  0  0  0  0  0  0  0  0  0
   14.6360   -8.2924    0.0000 O   0  0  0  0  0  0  0  0  0  0  0  0
   13.8110   -9.7213    0.0000 O   0  0  0  0  0  0  0  0  0  0  0  0
   12.1610   -9.7213    0.0000 C   0  0  0  0  0  0  0  0  0  0  0  0
  1  2  1  0  0  0  0
  1  3  1  0  0  0  0
  2  4  1  0  0  0  0
  3  5  1  0  0  0  0
  4  6  1  0  0  0  0
  5  6  1  0  0  0  0
  1  7  1  6  0  0  0
  2  8  1  6  0  0  0
  4  9  1  1  0  0  0
  6 10  1  1  0  0  0
  5 11  1  1  0  0  0
 12 11  1  0  0  0  0
 13 14  1  0  0  0  0
 13 15  1  0  0  0  0
 14 16  1  0  0  0  0
 15 17  1  0  0  0  0
 16 18  1  0  0  0  0
 17 18  1  0  0  0  0
 13 19  1  1  0  0  0
 14 20  1  6  0  0  0
 16  7  1  1  0  0  0
 18 21  1  1  0  0  0
 17 22  1  1  0  0  0
 23 22  1  0  0  0  0
 24 25  1  0  0  0  0
 24 26  1  0  0  0  0
 25 27  1  0  0  0  0
 26 28  1  0  0  0  0
 27 29  1  0  0  0  0
 28 29  1  0  0  0  0
 24 30  1  0  0  0  0
 25 31  1  6  0  0  0
 27 32  1  1  0  0  0
 29 19  1  6  0  0  0
 28 33  1  1  0  0  0
 34 33  1  0  0  0  0
 36 35  2  0  0  0  0
 37 35  1  0  0  0  0
 31 35  1  0  0  0  0
 38 39  1  0  0  0  0
 38 40  1  0  0  0  0
 39 41  1  0  0  0  0
 40 42  1  0  0  0  0
 41 43  1  0  0  0  0
 42 43  1  0  0  0  0
 38 20  1  1  0  0  0
 39 44  1  1  0  0  0
 41 45  1  6  0  0  0
 43 46  1  6  0  0  0
 42 47  1  6  0  0  0
M  END
> <ID>
CHEBI:62099

> <NAME>
alpha-D-Gal-(1->3)-[alpha-L-Fuc-(1->2)]-beta-D-Gal-(1->4)-D-GlcNAc

> <DEFINITION>
A branched amino tetrasaccharide with a structure consisting of an α-galactosyl-(1→3)-β-galactosyl-(1→4)-N-acetylglucosamine backbone, to the subterminal galactose of which is α(1→2)-linked a fucosyl residue.

> <STAR>
3

> <SYNONYM>
Galalpha1-3(Fucalpha1-2)Galbeta1-4GlcNAc; Gala1-3(Fuca1-2)Galb1-4GlcNAc; alpha-D-Galp-(1->3)-[alpha-L-Fucp-(1->2)]-beta-D-Galp-(1->4)-D-GlcpNAc; alpha-D-galactosyl-(1->3)-[alpha-L-fucosyl-(1->2)]-beta-D-galactosyl-(1->4)-N-acetyl-D-glucosamine; 6-deoxy-alpha-L-galactopyranosyl-(1->2)-[alpha-D-galactopyranosyl-(1->3)]-beta-D-galactopyranosyl-(1->4)-2-acetamido-2-deoxy-D-glucopyranose; (Gal)2 (GlcNAc)1 (LFuc)1

> <IUPAC_NAME>
alpha-L-fucopyranosyl-(1->2)-[alpha-D-galactopyranosyl-(1->3)]-beta-D-galactopyranosyl-(1->4)-2-acetamido-2-deoxy-D-glucopyranose

> <FORMULA>
C26H45NO20

> <MASS>
691.63020

> <MONOISOTOPIC_MASS>
691.25349

> <CHARGE>
0

> <SMILES>
C[C@@H]1O[C@@H](O[C@H]2[C@@H](O[C@H](CO)[C@H](O)[C@@H]2O[C@H]2O[C@H](CO)[C@H](O)[C@H](O)[C@H]2O)O[C@H]2[C@H](O)[C@@H](NC(C)=O)C(O)O[C@@H]2CO)[C@@H](O)[C@H](O)[C@@H]1O

> <INCHI>
InChI=1S/C26H45NO20/c1-6-12(32)16(36)18(38)24(41-6)47-22-21(46-25-19(39)17(37)13(33)8(3-28)43-25)14(34)9(4-29)44-26(22)45-20-10(5-30)42-23(40)11(15(20)35)27-7(2)31/h6,8-26,28-30,32-40H,3-5H2,1-2H3,(H,27,31)/t6-,8+,9+,10+,11+,12+,13-,14-,15+,16+,17-,18-,19+,20+,21-,22+,23?,24-,25+,26-/m0/s1

> <INCHIKEY>
NKJKPKMCVCXPMF-ZMQUGIHSSA-N

> <KEGG_GLYCAN_ACCESSION>
G00604

> <PUBMED_CITATION>
16133833; 19443021; 21981750; 25568069; 31537530; 4110197; 7688662

$$$$

Marvin  05161117112D          

 23 24  0  0  1  0            999 V2000
   14.4182  -10.7734    0.0000 C   0  0  0  0  0  0  0  0  0  0  0  0
   14.4182  -11.5983    0.0000 C   0  0  1  0  0  0  0  0  0  0  0  0
   13.7037  -10.3609    0.0000 O   0  0  0  0  0  0  0  0  0  0  0  0
   13.7037  -12.0108    0.0000 C   0  0  2  0  0  0  0  0  0  0  0  0
   12.9893  -10.7734    0.0000 C   0  0  1  0  0  0  0  0  0  0  0  0
   12.9893  -11.5983    0.0000 C   0  0  2  0  0  0  0  0  0  0  0  0
   15.1327  -10.3609    0.0000 O   0  0  0  0  0  0  0  0  0  0  0  0
   15.1327  -12.0108    0.0000 O   0  0  0  0  0  0  0  0  0  0  0  0
   13.7037  -12.8358    0.0000 O   0  0  0  0  0  0  0  0  0  0  0  0
   12.2749  -12.0108    0.0000 O   0  0  0  0  0  0  0  0  0  0  0  0
   12.2749  -10.3609    0.0000 C   0  0  0  0  0  0  0  0  0  0  0  0
   11.5604  -10.7734    0.0000 O   0  0  0  0  0  0  0  0  0  0  0  0
   10.8459  -10.3609    0.0000 C   0  0  1  0  0  0  0  0  0  0  0  0
   10.1315  -10.7734    0.0000 C   0  0  1  0  0  0  0  0  0  0  0  0
   10.8459   -9.5358    0.0000 O   0  0  0  0  0  0  0  0  0  0  0  0
    9.4171  -10.3607    0.0000 C   0  0  2  0  0  0  0  0  0  0  0  0
   10.1315   -9.1233    0.0000 C   0  0  1  0  0  0  0  0  0  0  0  0
    9.4171   -9.5358    0.0000 C   0  0  2  0  0  0  0  0  0  0  0  0
   10.1315  -11.5983    0.0000 O   0  0  0  0  0  0  0  0  0  0  0  0
    8.7026  -10.7732    0.0000 O   0  0  0  0  0  0  0  0  0  0  0  0
    8.7026   -9.1233    0.0000 O   0  0  0  0  0  0  0  0  0  0  0  0
   10.1315   -8.2983    0.0000 C   0  0  0  0  0  0  0  0  0  0  0  0
    9.4172   -7.8858    0.0000 O   0  0  0  0  0  0  0  0  0  0  0  0
  1  2  1  0  0  0  0
  1  3  1  0  0  0  0
  2  4  1  0  0  0  0
  3  5  1  0  0  0  0
  4  6  1  0  0  0  0
  5  6  1  0  0  0  0
  1  7  1  0  0  0  0
  2  8  1  6  0  0  0
  4  9  1  1  0  0  0
  6 10  1  1  0  0  0
  5 11  1  1  0  0  0
 12 11  1  0  0  0  0
 13 14  1  0  0  0  0
 13 15  1  0  0  0  0
 14 16  1  0  0  0  0
 15 17  1  0  0  0  0
 16 18  1  0  0  0  0
 17 18  1  0  0  0  0
 13 12  1  1  0  0  0
 14 19  1  6  0  0  0
 16 20  1  1  0  0  0
 18 21  1  1  0  0  0
 17 22  1  1  0  0  0
 23 22  1  0  0  0  0
M  END
> <ID>
CHEBI:62103

> <NAME>
beta-D-Galp-(1->6)-D-Galp

> <DEFINITION>
A glycosylgalactose consisting of D-galactose having a β-D-galactosyl residue attached at the 6-position.

> <STAR>
3

> <SYNONYM>
Galbeta1-6Gal; Gal(beta1-6)Gal; beta-D-galactosyl-(1->6)-D-galactose; beta-D-Gal-(1->6)-D-Gal; 6-O-beta-D-galactopyranosyl-D-galactopyranose; (Gal)2

> <IUPAC_NAME>
beta-D-galactopyranosyl-(1->6)-D-galactopyranose

> <FORMULA>
C12H22O11

> <MASS>
342.29650

> <MONOISOTOPIC_MASS>
342.11621

> <CHARGE>
0

> <SMILES>
OC[C@H]1O[C@@H](OC[C@H]2OC(O)[C@H](O)[C@@H](O)[C@H]2O)[C@H](O)[C@@H](O)[C@H]1O

> <INCHI>
InChI=1S/C12H22O11/c13-1-3-5(14)8(17)10(19)12(23-3)21-2-4-6(15)7(16)9(18)11(20)22-4/h3-20H,1-2H2/t3-,4-,5+,6+,7+,8+,9-,10-,11?,12-/m1/s1

> <INCHIKEY>
DLRVVLDZNNYCBX-JZSVMVJISA-N

> <REAXYS_REGISTRY_NUMBER>
1292776

> <KEGG_GLYCAN_ACCESSION>
G00377

> <PUBMED_CITATION>
10515051; 12619675; 14638629; 15582427; 2119886; 8154046; 8529225

$$$$

Marvin  05161117172D          

 34 36  0  0  1  0            999 V2000
   12.7475  -27.2135    0.0000 C   0  0  2  0  0  0  0  0  0  0  0  0
   12.0330  -26.8010    0.0000 O   0  0  0  0  0  0  0  0  0  0  0  0
   13.4619  -26.8010    0.0000 C   0  0  2  0  0  0  0  0  0  0  0  0
   13.4619  -25.9760    0.0000 O   0  0  0  0  0  0  0  0  0  0  0  0
   14.1764  -27.2135    0.0000 C   0  0  1  0  0  0  0  0  0  0  0  0
   14.8908  -26.8010    0.0000 O   0  0  0  0  0  0  0  0  0  0  0  0
   14.1764  -28.0385    0.0000 C   0  0  2  0  0  0  0  0  0  0  0  0
   14.8908  -28.4509    0.0000 O   0  0  0  0  0  0  0  0  0  0  0  0
   13.4619  -28.4509    0.0000 C   0  0  2  0  0  0  0  0  0  0  0  0
   12.7475  -28.0385    0.0000 O   0  0  0  0  0  0  0  0  0  0  0  0
   13.4619  -29.2759    0.0000 C   0  0  0  0  0  0  0  0  0  0  0  0
   14.1764  -29.6884    0.0000 O   0  0  0  0  0  0  0  0  0  0  0  0
   11.3185  -27.2135    0.0000 C   0  0  2  0  0  0  0  0  0  0  0  0
   11.3185  -28.0385    0.0000 C   0  0  2  0  0  0  0  0  0  0  0  0
   12.0330  -28.4509    0.0000 O   0  0  0  0  0  0  0  0  0  0  0  0
   10.6041  -28.4509    0.0000 C   0  0  1  0  0  0  0  0  0  0  0  0
   10.6041  -29.2759    0.0000 O   0  0  0  0  0  0  0  0  0  0  0  0
    9.8897  -28.0385    0.0000 C   0  0  2  0  0  0  0  0  0  0  0  0
    9.1752  -28.4509    0.0000 O   0  0  0  0  0  0  0  0  0  0  0  0
    9.8897  -27.2135    0.0000 C   0  0  2  0  0  0  0  0  0  0  0  0
   10.6041  -26.8010    0.0000 O   0  0  0  0  0  0  0  0  0  0  0  0
    9.1752  -26.8010    0.0000 C   0  0  0  0  0  0  0  0  0  0  0  0
    8.4607  -27.2135    0.0000 O   0  0  0  0  0  0  0  0  0  0  0  0
    7.7462  -27.6260    0.0000 C   0  0  2  0  0  0  0  0  0  0  0  0
    7.7462  -28.4510    0.0000 C   0  0  1  0  0  0  0  0  0  0  0  0
    7.0317  -27.2135    0.0000 O   0  0  0  0  0  0  0  0  0  0  0  0
    7.0317  -28.8635    0.0000 C   0  0  2  0  0  0  0  0  0  0  0  0
    6.3173  -27.6260    0.0000 C   0  0  1  0  0  0  0  0  0  0  0  0
    6.3173  -28.4510    0.0000 C   0  0  2  0  0  0  0  0  0  0  0  0
    8.4607  -28.8635    0.0000 O   0  0  0  0  0  0  0  0  0  0  0  0
    7.0317  -29.6885    0.0000 O   0  0  0  0  0  0  0  0  0  0  0  0
    5.6027  -28.8635    0.0000 O   0  0  0  0  0  0  0  0  0  0  0  0
    5.6027  -27.2135    0.0000 C   0  0  0  0  0  0  0  0  0  0  0  0
    4.8883  -27.6260    0.0000 O   0  0  0  0  0  0  0  0  0  0  0  0
  1  2  1  6  0  0  0
  3  1  1  0  0  0  0
 10  1  1  0  0  0  0
 13  2  1  6  0  0  0
  3  4  1  6  0  0  0
  5  3  1  0  0  0  0
  5  6  1  1  0  0  0
  7  5  1  0  0  0  0
  7  8  1  6  0  0  0
  9  7  1  0  0  0  0
 10  9  1  0  0  0  0
  9 11  1  1  0  0  0
 12 11  1  0  0  0  0
 14 13  1  0  0  0  0
 21 13  1  0  0  0  0
 14 15  1  6  0  0  0
 16 14  1  0  0  0  0
 16 17  1  1  0  0  0
 18 16  1  0  0  0  0
 18 19  1  6  0  0  0
 20 18  1  0  0  0  0
 21 20  1  0  0  0  0
 20 22  1  1  0  0  0
 23 22  1  0  0  0  0
 24 25  1  0  0  0  0
 24 26  1  0  0  0  0
 25 27  1  0  0  0  0
 26 28  1  0  0  0  0
 27 29  1  0  0  0  0
 28 29  1  0  0  0  0
 24 23  1  6  0  0  0
 25 30  1  6  0  0  0
 27 31  1  1  0  0  0
 29 32  1  1  0  0  0
 28 33  1  1  0  0  0
 34 33  1  0  0  0  0
M  END
> <ID>
CHEBI:62104

> <NAME>
alpha-D-galactosyl-(1->6)-alpha,alpha-trehalose

> <DEFINITION>
A trisaccharide with a structure in which a galactosyl residue is linked α(1→6) to α,α-trehalose.

> <STAR>
3

> <SYNONYM>
D-Gal(alpha1-6)trehalose; alpha-D-Galactopyranosyl-(1->6)-trehalose; alpha-D-Galactopyranosyl(1->6)trehalose

> <IUPAC_NAME>
alpha-D-galactopyranosyl-(1->6)-alpha-D-glucopyranosyl alpha-D-glucopyranoside

> <FORMULA>
C18H32O16

> <MASS>
504.43710

> <MONOISOTOPIC_MASS>
504.16903

> <CHARGE>
0

> <SMILES>
OC[C@H]1O[C@H](OC[C@H]2O[C@H](O[C@H]3O[C@H](CO)[C@@H](O)[C@H](O)[C@H]3O)[C@H](O)[C@@H](O)[C@@H]2O)[C@H](O)[C@@H](O)[C@H]1O

> <INCHI>
InChI=1S/C18H32O16/c19-1-4-7(21)10(24)13(27)16(31-4)30-3-6-9(23)12(26)15(29)18(33-6)34-17-14(28)11(25)8(22)5(2-20)32-17/h4-29H,1-3H2/t4-,5-,6-,7+,8-,9-,10+,11+,12+,13-,14-,15-,16+,17-,18-/m1/s1

> <INCHIKEY>
JPQYDVAIBALJDC-SWANJTMFSA-N

> <PUBMED_CITATION>
7688662

$$$$

Marvin  05171115572D          

 27 28  0  0  1  0            999 V2000
   14.3513   -4.7711    0.0000 C   0  0  1  0  0  0  0  0  0  0  0  0
   14.3513   -5.5962    0.0000 C   0  0  1  0  0  0  0  0  0  0  0  0
   13.6369   -4.3586    0.0000 O   0  0  0  0  0  0  0  0  0  0  0  0
   13.6369   -6.0087    0.0000 C   0  0  2  0  0  0  0  0  0  0  0  0
   12.9224   -4.7711    0.0000 C   0  0  1  0  0  0  0  0  0  0  0  0
   12.9224   -5.5962    0.0000 C   0  0  1  0  0  0  0  0  0  0  0  0
   15.0658   -4.3586    0.0000 O   0  0  0  0  0  0  0  0  0  0  0  0
   15.0658   -6.0087    0.0000 N   0  0  0  0  0  0  0  0  0  0  0  0
   13.6368   -6.8337    0.0000 O   0  0  0  0  0  0  0  0  0  0  0  0
   12.2079   -6.0087    0.0000 O   0  0  0  0  0  0  0  0  0  0  0  0
   12.2079   -4.3586    0.0000 C   0  0  0  0  0  0  0  0  0  0  0  0
   11.4934   -4.7711    0.0000 O   0  0  0  0  0  0  0  0  0  0  0  0
   15.0688   -6.8386    0.0000 C   0  0  0  0  0  0  0  0  0  0  0  0
   15.7847   -7.2486    0.0000 C   0  0  0  0  0  0  0  0  0  0  0  0
   14.3558   -7.2537    0.0000 O   0  0  0  0  0  0  0  0  0  0  0  0
   11.4935   -6.4212    0.0000 C   0  0  1  0  0  0  0  0  0  0  0  0
   11.4935   -7.2462    0.0000 C   0  0  1  0  0  0  0  0  0  0  0  0
   10.7789   -6.0087    0.0000 O   0  0  0  0  0  0  0  0  0  0  0  0
   10.7789   -7.6587    0.0000 C   0  0  2  0  0  0  0  0  0  0  0  0
   10.0645   -6.4212    0.0000 C   0  0  1  0  0  0  0  0  0  0  0  0
   10.0645   -7.2462    0.0000 C   0  0  2  0  0  0  0  0  0  0  0  0
   12.2079   -7.6587    0.0000 O   0  0  0  0  0  0  0  0  0  0  0  0
   10.7789   -8.4837    0.0000 O   0  0  0  0  0  0  0  0  0  0  0  0
    9.3500   -7.6587    0.0000 O   0  0  0  0  0  0  0  0  0  0  0  0
    9.3500   -6.0087    0.0000 C   0  0  0  0  0  0  0  0  0  0  0  0
    8.6355   -6.4212    0.0000 O   0  0  0  0  0  0  0  0  0  0  0  0
   15.7845   -4.7711    0.0000 C   0  0  0  0  0  0  0  0  0  0  0  0
  1  2  1  0  0  0  0
  1  3  1  0  0  0  0
  2  4  1  0  0  0  0
  3  5  1  0  0  0  0
  4  6  1  0  0  0  0
  5  6  1  0  0  0  0
  1  7  1  1  0  0  0
  2  8  1  6  0  0  0
  4  9  1  1  0  0  0
  6 10  1  6  0  0  0
  5 11  1  1  0  0  0
 12 11  1  0  0  0  0
  8 13  1  0  0  0  0
 13 14  1  0  0  0  0
 13 15  2  0  0  0  0
 16 17  1  0  0  0  0
 16 18  1  0  0  0  0
 17 19  1  0  0  0  0
 18 20  1  0  0  0  0
 19 21  1  0  0  0  0
 20 21  1  0  0  0  0
 16 10  1  1  0  0  0
 17 22  1  6  0  0  0
 19 23  1  1  0  0  0
 21 24  1  1  0  0  0
 20 25  1  1  0  0  0
 26 25  1  0  0  0  0
  7 27  1  0  0  0  0
M  END
> <ID>
CHEBI:62124

> <NAME>
beta-D-Galp-(1->4)-beta-D-GlcpNAc-OMe

> <DEFINITION>
A methyl glycoside that is β-D-galactopyranosyl-(1→4)-2-acetamido-2-deoxy-β-D-glucopyranose in which the anomeric hydroxy group is replaced by methoxy.

> <STAR>
3

> <SYNONYM>
methyl 2-acetamido-2-deoxy-4-O-beta-D-galactopyranosyl-beta-D-glucopyranoside; methyl 2-(acetylamino)-2-deoxy-4-O-beta-D-galactopyranosyl-beta-D-glucopyranoside; Gal-beta1,4-GlcNAc-beta1-O-Me; beta-D-Gal-(1->4)-beta-D-GlcNAc-OMe

> <IUPAC_NAME>
methyl beta-D-galactopyranosyl-(1->4)-2-acetamido-2-deoxy-beta-D-glucopyranoside

> <FORMULA>
C15H27NO11

> <MASS>
397.37500

> <MONOISOTOPIC_MASS>
397.15841

> <CHARGE>
0

> <SMILES>
CO[C@@H]1O[C@H](CO)[C@@H](O[C@@H]2O[C@H](CO)[C@H](O)[C@H](O)[C@H]2O)[C@H](O)[C@H]1NC(C)=O

> <INCHI>
InChI=1S/C15H27NO11/c1-5(19)16-8-10(21)13(7(4-18)26-14(8)24-2)27-15-12(23)11(22)9(20)6(3-17)25-15/h6-15,17-18,20-23H,3-4H2,1-2H3,(H,16,19)/t6-,7-,8-,9+,10-,11+,12-,13-,14-,15+/m1/s1

> <INCHIKEY>
PKPZITUQXLANSE-AEBMIEDASA-N

> <REAXYS_REGISTRY_NUMBER>
55221

> <PUBMED_CITATION>
6083447

$$$$

Marvin  05171117012D          

 21 22  0  0  1  0            999 V2000
   11.3925   -8.4441    0.0000 C   0  0  0  0  0  0  0  0  0  0  0  0
   11.3925   -9.2691    0.0000 C   0  0  2  0  0  0  0  0  0  0  0  0
   10.6780   -8.0316    0.0000 O   0  0  0  0  0  0  0  0  0  0  0  0
   10.6780   -9.6816    0.0000 C   0  0  2  0  0  0  0  0  0  0  0  0
    9.9635   -8.4441    0.0000 C   0  0  1  0  0  0  0  0  0  0  0  0
    9.9635   -9.2691    0.0000 C   0  0  1  0  0  0  0  0  0  0  0  0
   12.1070   -8.0316    0.0000 O   0  0  0  0  0  0  0  0  0  0  0  0
   12.3455  -10.3873    0.0000 O   0  0  0  0  0  0  0  0  0  0  0  0
   10.6780  -10.5066    0.0000 O   0  0  0  0  0  0  0  0  0  0  0  0
    9.2491   -9.6816    0.0000 O   0  0  0  0  0  0  0  0  0  0  0  0
    9.2491   -8.0316    0.0000 C   0  0  0  0  0  0  0  0  0  0  0  0
    8.5346   -8.4441    0.0000 O   0  0  0  0  0  0  0  0  0  0  0  0
   11.4252  -11.4050    0.0000 C   0  0  1  0  0  0  0  0  0  0  0  0
   11.4252  -12.2300    0.0000 C   0  0  1  0  0  0  0  0  0  0  0  0
   10.7106  -11.0135    0.0000 O   0  0  0  0  0  0  0  0  0  0  0  0
   10.7106  -12.6425    0.0000 C   0  0  2  0  0  0  0  0  0  0  0  0
    9.9962  -11.4050    0.0000 C   0  0  0  0  0  0  0  0  0  0  0  0
    9.9962  -12.2300    0.0000 C   0  0  1  0  0  0  0  0  0  0  0  0
   12.1396  -12.6425    0.0000 O   0  0  0  0  0  0  0  0  0  0  0  0
   10.7106  -13.4675    0.0000 O   0  0  0  0  0  0  0  0  0  0  0  0
    9.2817  -12.6425    0.0000 O   0  0  0  0  0  0  0  0  0  0  0  0
  1  2  1  0  0  0  0
  1  3  1  0  0  0  0
  2  4  1  0  0  0  0
  3  5  1  0  0  0  0
  4  6  1  0  0  0  0
  5  6  1  0  0  0  0
  1  7  1  0  0  0  0
  2  8  1  1  0  0  0
  4  9  1  1  0  0  0
  6 10  1  6  0  0  0
  5 11  1  1  0  0  0
 12 11  1  0  0  0  0
 13 14  1  0  0  0  0
 13 15  1  0  0  0  0
 14 16  1  0  0  0  0
 15 17  1  0  0  0  0
 16 18  1  0  0  0  0
 17 18  1  0  0  0  0
 14 19  1  6  0  0  0
 16 20  1  1  0  0  0
 18 21  1  6  0  0  0
 13  8  1  1  0  0  0
M  END
> <ID>
CHEBI:62132

> <NAME>
beta-D-Xylp-(1->2)-D-Manp

> <DEFINITION>
A glycosylmannose consisting of D-mannose having a β-D-xylosyl residue attached at the 2-position.

> <STAR>
3

> <SYNONYM>
beta-D-xylosyl-(1->2)-D-mannose; beta-D-Xyl-(1->2)-D-Man; 2-O-beta-D-xylosyl-D-mannose; 2-O-beta-D-xylopyranosyl-D-mannopyranose; (Man)1 (Xyl)1

> <IUPAC_NAME>
beta-D-xylopyranosyl-(1->2)-D-mannopyranose

> <FORMULA>
C11H20O10

> <MASS>
312.27050

> <MONOISOTOPIC_MASS>
312.10565

> <CHARGE>
0

> <SMILES>
OC[C@H]1OC(O)[C@@H](O[C@@H]2OC[C@@H](O)[C@H](O)[C@H]2O)[C@@H](O)[C@@H]1O

> <INCHI>
InChI=1S/C11H20O10/c12-1-4-6(15)7(16)9(10(18)20-4)21-11-8(17)5(14)3(13)2-19-11/h3-18H,1-2H2/t3-,4-,5+,6-,7+,8-,9+,10?,11+/m1/s1

> <INCHIKEY>
BUEBVQCTEJTADB-BQJAEQQFSA-N

> <KEGG_GLYCAN_ACCESSION>
G09088

$$$$

Marvin  05181112542D          

 37 39  0  0  1  0            999 V2000
   10.9637  -14.2811    0.0000 C   0  0  1  0  0  0  0  0  0  0  0  0
   11.6781  -14.6936    0.0000 C   0  0  2  0  0  0  0  0  0  0  0  0
   10.2491  -14.6936    0.0000 O   0  0  0  0  0  0  0  0  0  0  0  0
   11.6781  -15.5186    0.0000 C   0  0  1  0  0  0  0  0  0  0  0  0
   10.2492  -15.5186    0.0000 C   0  0  2  0  0  0  0  0  0  0  0  0
   10.9637  -15.9311    0.0000 C   0  0  1  0  0  0  0  0  0  0  0  0
   10.9636  -13.4561    0.0000 O   0  0  0  0  0  0  0  0  0  0  0  0
   12.3926  -14.2811    0.0000 O   0  0  0  0  0  0  0  0  0  0  0  0
   12.3926  -15.9311    0.0000 O   0  0  0  0  0  0  0  0  0  0  0  0
   10.9637  -16.7561    0.0000 O   0  0  0  0  0  0  0  0  0  0  0  0
    9.5347  -15.9311    0.0000 C   0  0  0  0  0  0  0  0  0  0  0  0
   10.2491  -12.2185    0.0000 C   0  0  1  0  0  0  0  0  0  0  0  0
   10.2491  -13.0436    0.0000 C   0  0  1  0  0  0  0  0  0  0  0  0
    9.5346  -11.8060    0.0000 O   0  0  0  0  0  0  0  0  0  0  0  0
    9.5346  -13.4561    0.0000 C   0  0  2  0  0  0  0  0  0  0  0  0
    8.8201  -12.2185    0.0000 C   0  0  1  0  0  0  0  0  0  0  0  0
    8.8201  -13.0436    0.0000 C   0  0  2  0  0  0  0  0  0  0  0  0
   10.9636  -11.8060    0.0000 O   0  0  0  0  0  0  0  0  0  0  0  0
    9.5346  -14.2811    0.0000 O   0  0  0  0  0  0  0  0  0  0  0  0
    8.1057  -13.4561    0.0000 O   0  0  0  0  0  0  0  0  0  0  0  0
    8.1057  -11.8060    0.0000 C   0  0  0  0  0  0  0  0  0  0  0  0
    7.3912  -12.2185    0.0000 O   0  0  0  0  0  0  0  0  0  0  0  0
   13.1107  -14.6911    0.0000 C   0  0  0  0  0  0  0  0  0  0  0  0
   11.6781   -9.7435    0.0000 C   0  0  2  0  0  0  0  0  0  0  0  0
   11.6781  -10.5685    0.0000 C   0  0  1  0  0  0  0  0  0  0  0  0
   10.9636   -9.3310    0.0000 O   0  0  0  0  0  0  0  0  0  0  0  0
   10.9636  -10.9810    0.0000 C   0  0  2  0  0  0  0  0  0  0  0  0
   10.2491   -9.7435    0.0000 C   0  0  1  0  0  0  0  0  0  0  0  0
   10.2491  -10.5685    0.0000 C   0  0  2  0  0  0  0  0  0  0  0  0
   12.3926   -9.3310    0.0000 O   0  0  0  0  0  0  0  0  0  0  0  0
   12.3926  -10.9810    0.0000 N   0  0  0  0  0  0  0  0  0  0  0  0
    9.5347  -10.9810    0.0000 O   0  0  0  0  0  0  0  0  0  0  0  0
    9.5347   -9.3310    0.0000 C   0  0  0  0  0  0  0  0  0  0  0  0
    8.8202   -9.7435    0.0000 O   0  0  0  0  0  0  0  0  0  0  0  0
   12.3950  -11.8085    0.0000 C   0  0  0  0  0  0  0  0  0  0  0  0
   13.1107  -12.2260    0.0000 C   0  0  0  0  0  0  0  0  0  0  0  0
   11.6793  -12.2260    0.0000 O   0  0  0  0  0  0  0  0  0  0  0  0
  1  2  1  0  0  0  0
  1  3  1  0  0  0  0
  2  4  1  0  0  0  0
  3  5  1  0  0  0  0
  4  6  1  0  0  0  0
  5  6  1  0  0  0  0
  1  7  1  1  0  0  0
  2  8  1  1  0  0  0
  4  9  1  6  0  0  0
  6 10  1  6  0  0  0
  5 11  1  6  0  0  0
 12 13  1  0  0  0  0
 12 14  1  0  0  0  0
 13 15  1  0  0  0  0
 14 16  1  0  0  0  0
 15 17  1  0  0  0  0
 16 17  1  0  0  0  0
 12 18  1  1  0  0  0
 13  7  1  6  0  0  0
 15 19  1  1  0  0  0
 17 20  1  1  0  0  0
 16 21  1  1  0  0  0
 22 21  1  0  0  0  0
  8 23  1  0  0  0  0
 24 25  1  0  0  0  0
 24 26  1  0  0  0  0
 25 27  1  0  0  0  0
 26 28  1  0  0  0  0
 27 29  1  0  0  0  0
 28 29  1  0  0  0  0
 24 30  1  6  0  0  0
 25 31  1  6  0  0  0
 27 18  1  1  0  0  0
 29 32  1  1  0  0  0
 28 33  1  1  0  0  0
 34 33  1  0  0  0  0
 31 35  1  0  0  0  0
 35 36  1  0  0  0  0
 35 37  2  0  0  0  0
M  END
> <ID>
CHEBI:62146

> <NAME>
alpha-L-Fucp2Me-(1->2)-beta-D-Galp-(1->3)-alpha-D-GalpNAc

> <DEFINITION>
An amino trisaccharide consisting of a 2-O-methyl-L-fucosyl residue at the non-reducing end linked (1→2) to an β-D-galactosyl residue which is in turn linked (1→3) to an N-acetyl-α-D-galactosamine.

> <STAR>
3

> <SYNONYM>
6-deoxy-2-O-methyl-alpha-L-galactopyranosyl-(1->2)-beta-D-galactopyranosyl-(1->3)-2-(acetylamino)-2-deoxy-alpha-D-galactopyranose; 2-O-methyl-alpha-L-fucopyranosyl-(1->2)-beta-D-galactopyranosyl-(1->3)-2-acetamido-2-deoxy-alpha-D-galactopyranose; 2-O-Me-alpha-L-Fucp-(1-2)-beta-D-Galp-(1-3)-alpha-D-GalpNAc

> <IUPAC_NAME>
6-deoxy-2-O-methyl-alpha-L-galactopyranosyl-(1->2)-beta-D-galactopyranosyl-(1->3)-2-acetamido-2-deoxy-alpha-D-galactopyranose

> <FORMULA>
C21H37NO15

> <MASS>
543.51620

> <MONOISOTOPIC_MASS>
543.21632

> <CHARGE>
0

> <SMILES>
CO[C@H]1[C@H](O)[C@H](O)[C@H](C)O[C@H]1O[C@@H]1[C@@H](O)[C@@H](O)[C@@H](CO)O[C@H]1O[C@H]1[C@@H](O)[C@@H](CO)O[C@H](O)[C@@H]1NC(C)=O

> <INCHI>
InChI=1S/C21H37NO15/c1-6-11(26)14(29)17(32-3)20(33-6)37-18-15(30)12(27)8(4-23)35-21(18)36-16-10(22-7(2)25)19(31)34-9(5-24)13(16)28/h6,8-21,23-24,26-31H,4-5H2,1-3H3,(H,22,25)/t6-,8+,9+,10+,11+,12-,13-,14+,15-,16+,17-,18+,19-,20-,21-/m0/s1

> <INCHIKEY>
XVUITXFQQQCSAO-RTOXNMLQSA-N

> <PUBMED_CITATION>
17087964

$$$$

Marvin  05181113062D          

 37 39  0  0  1  0            999 V2000
   10.9637  -14.2811    0.0000 C   0  0  1  0  0  0  0  0  0  0  0  0
   11.6781  -14.6936    0.0000 C   0  0  2  0  0  0  0  0  0  0  0  0
   10.2491  -14.6936    0.0000 O   0  0  0  0  0  0  0  0  0  0  0  0
   11.6781  -15.5186    0.0000 C   0  0  1  0  0  0  0  0  0  0  0  0
   10.2492  -15.5186    0.0000 C   0  0  2  0  0  0  0  0  0  0  0  0
   10.9637  -15.9311    0.0000 C   0  0  1  0  0  0  0  0  0  0  0  0
   10.9636  -13.4561    0.0000 O   0  0  0  0  0  0  0  0  0  0  0  0
   12.3926  -14.2811    0.0000 O   0  0  0  0  0  0  0  0  0  0  0  0
   12.3926  -15.9311    0.0000 O   0  0  0  0  0  0  0  0  0  0  0  0
   10.9637  -16.7561    0.0000 O   0  0  0  0  0  0  0  0  0  0  0  0
    9.5347  -15.9311    0.0000 C   0  0  0  0  0  0  0  0  0  0  0  0
   10.2491  -12.2185    0.0000 C   0  0  1  0  0  0  0  0  0  0  0  0
   10.2491  -13.0436    0.0000 C   0  0  1  0  0  0  0  0  0  0  0  0
    9.5346  -11.8060    0.0000 O   0  0  0  0  0  0  0  0  0  0  0  0
    9.5346  -13.4561    0.0000 C   0  0  2  0  0  0  0  0  0  0  0  0
    8.8201  -12.2185    0.0000 C   0  0  1  0  0  0  0  0  0  0  0  0
    8.8201  -13.0436    0.0000 C   0  0  2  0  0  0  0  0  0  0  0  0
   10.9636  -11.8060    0.0000 O   0  0  0  0  0  0  0  0  0  0  0  0
    9.5346  -14.2811    0.0000 O   0  0  0  0  0  0  0  0  0  0  0  0
    8.1057  -13.4561    0.0000 O   0  0  0  0  0  0  0  0  0  0  0  0
    8.1057  -11.8060    0.0000 C   0  0  0  0  0  0  0  0  0  0  0  0
    7.3912  -12.2185    0.0000 O   0  0  0  0  0  0  0  0  0  0  0  0
   13.1107  -14.6911    0.0000 C   0  0  0  0  0  0  0  0  0  0  0  0
   11.6781   -9.7435    0.0000 C   0  0  1  0  0  0  0  0  0  0  0  0
   11.6781  -10.5685    0.0000 C   0  0  1  0  0  0  0  0  0  0  0  0
   10.9636   -9.3310    0.0000 O   0  0  0  0  0  0  0  0  0  0  0  0
   10.9636  -10.9810    0.0000 C   0  0  2  0  0  0  0  0  0  0  0  0
   10.2491   -9.7435    0.0000 C   0  0  1  0  0  0  0  0  0  0  0  0
   10.2491  -10.5685    0.0000 C   0  0  2  0  0  0  0  0  0  0  0  0
   12.3926   -9.3310    0.0000 O   0  0  0  0  0  0  0  0  0  0  0  0
   12.3926  -10.9810    0.0000 N   0  0  0  0  0  0  0  0  0  0  0  0
    9.5347  -10.9810    0.0000 O   0  0  0  0  0  0  0  0  0  0  0  0
    9.5347   -9.3310    0.0000 C   0  0  0  0  0  0  0  0  0  0  0  0
    8.8202   -9.7435    0.0000 O   0  0  0  0  0  0  0  0  0  0  0  0
   12.3950  -11.8085    0.0000 C   0  0  0  0  0  0  0  0  0  0  0  0
   13.1107  -12.2260    0.0000 C   0  0  0  0  0  0  0  0  0  0  0  0
   11.6793  -12.2260    0.0000 O   0  0  0  0  0  0  0  0  0  0  0  0
  1  2  1  0  0  0  0
  1  3  1  0  0  0  0
  2  4  1  0  0  0  0
  3  5  1  0  0  0  0
  4  6  1  0  0  0  0
  5  6  1  0  0  0  0
  1  7  1  1  0  0  0
  2  8  1  1  0  0  0
  4  9  1  6  0  0  0
  6 10  1  6  0  0  0
  5 11  1  6  0  0  0
 12 13  1  0  0  0  0
 12 14  1  0  0  0  0
 13 15  1  0  0  0  0
 14 16  1  0  0  0  0
 15 17  1  0  0  0  0
 16 17  1  0  0  0  0
 12 18  1  1  0  0  0
 13  7  1  6  0  0  0
 15 19  1  1  0  0  0
 17 20  1  1  0  0  0
 16 21  1  1  0  0  0
 22 21  1  0  0  0  0
  8 23  1  0  0  0  0
 24 25  1  0  0  0  0
 24 26  1  0  0  0  0
 25 27  1  0  0  0  0
 26 28  1  0  0  0  0
 27 29  1  0  0  0  0
 28 29  1  0  0  0  0
 24 30  1  1  0  0  0
 25 31  1  6  0  0  0
 27 18  1  1  0  0  0
 29 32  1  1  0  0  0
 28 33  1  1  0  0  0
 34 33  1  0  0  0  0
 31 35  1  0  0  0  0
 35 36  1  0  0  0  0
 35 37  2  0  0  0  0
M  END
> <ID>
CHEBI:62148

> <NAME>
alpha-L-Fucp2Me-(1->2)-beta-D-Galp-(1->3)-beta-D-GalpNAc

> <DEFINITION>
An amino trisaccharide consisting of a 2-O-methyl-L-fucosyl residue at the non-reducing end linked (1→2) to an β-D-galactosyl residue which is in turn linked (1→3) to an N-acetyl-β-D-galactosamine.

> <STAR>
3

> <SYNONYM>
6-deoxy-2-O-methyl-alpha-L-galactopyranosyl-(1->2)-beta-D-galactopyranosyl-(1->3)-2-(acetylamino)-2-deoxy-beta-D-galactopyranose; 2-O-methyl-alpha-L-fucopyranosyl-(1->2)-beta-D-galactopyranosyl-(1->3)-2-acetamido-2-deoxy-beta-D-galactopyranose; 2-O-Me-alpha-L-Fucp-(1-2)-beta-D-Galp-(1-3)-beta-D-GalpNAc

> <IUPAC_NAME>
6-deoxy-2-O-methyl-alpha-L-galactopyranosyl-(1->2)-beta-D-galactopyranosyl-(1->3)-2-acetamido-2-deoxy-beta-D-galactopyranose

> <FORMULA>
C21H37NO15

> <MASS>
543.51620

> <MONOISOTOPIC_MASS>
543.21632

> <CHARGE>
0

> <SMILES>
CO[C@H]1[C@H](O)[C@H](O)[C@H](C)O[C@H]1O[C@@H]1[C@@H](O)[C@@H](O)[C@@H](CO)O[C@H]1O[C@H]1[C@@H](O)[C@@H](CO)O[C@@H](O)[C@@H]1NC(C)=O

> <INCHI>
InChI=1S/C21H37NO15/c1-6-11(26)14(29)17(32-3)20(33-6)37-18-15(30)12(27)8(4-23)35-21(18)36-16-10(22-7(2)25)19(31)34-9(5-24)13(16)28/h6,8-21,23-24,26-31H,4-5H2,1-3H3,(H,22,25)/t6-,8+,9+,10+,11+,12-,13-,14+,15-,16+,17-,18+,19+,20-,21-/m0/s1

> <INCHIKEY>
XVUITXFQQQCSAO-FOUBJEMKSA-N

> <PUBMED_CITATION>
17087964

$$$$

Marvin  12121114082D          

 24 25  0  0  1  0            999 V2000
   10.6650  -13.4739    0.0000 C   0  0  1  0  0  0  0  0  0  0  0  0
   11.3794  -13.8864    0.0000 C   0  0  2  0  0  0  0  0  0  0  0  0
    9.9505  -13.8864    0.0000 O   0  0  0  0  0  0  0  0  0  0  0  0
   11.3794  -14.7114    0.0000 C   0  0  1  0  0  0  0  0  0  0  0  0
    9.9505  -14.7114    0.0000 C   0  0  2  0  0  0  0  0  0  0  0  0
   10.6650  -15.1239    0.0000 C   0  0  1  0  0  0  0  0  0  0  0  0
   10.6649  -12.6489    0.0000 O   0  0  0  0  0  0  0  0  0  0  0  0
   12.0939  -13.4739    0.0000 O   0  0  0  0  0  0  0  0  0  0  0  0
   12.0939  -15.1239    0.0000 O   0  0  0  0  0  0  0  0  0  0  0  0
   10.6650  -15.9489    0.0000 O   0  0  0  0  0  0  0  0  0  0  0  0
    9.2361  -15.1239    0.0000 C   0  0  0  0  0  0  0  0  0  0  0  0
    9.9505  -11.4113    0.0000 C   0  0  1  0  0  0  0  0  0  0  0  0
    9.9505  -12.2364    0.0000 C   0  0  1  0  0  0  0  0  0  0  0  0
    9.2359  -10.9988    0.0000 O   0  0  0  0  0  0  0  0  0  0  0  0
    9.2359  -12.6489    0.0000 C   0  0  2  0  0  0  0  0  0  0  0  0
    8.5215  -11.4113    0.0000 C   0  0  1  0  0  0  0  0  0  0  0  0
    8.5215  -12.2364    0.0000 C   0  0  2  0  0  0  0  0  0  0  0  0
    9.2359  -13.4739    0.0000 O   0  0  0  0  0  0  0  0  0  0  0  0
    7.8071  -12.6489    0.0000 O   0  0  0  0  0  0  0  0  0  0  0  0
    7.8071  -10.9988    0.0000 C   0  0  0  0  0  0  0  0  0  0  0  0
    7.0926  -11.4113    0.0000 O   0  0  0  0  0  0  0  0  0  0  0  0
   12.8120  -13.8839    0.0000 C   0  0  0  0  0  0  0  0  0  0  0  0
    7.8028  -13.4784    0.0000 C   0  0  0  0  0  0  0  0  0  0  0  0
   10.6649  -10.9988    0.0000 O   0  0  0  0  0  0  0  0  0  0  0  0
  1  2  1  0  0  0  0
  1  3  1  0  0  0  0
  2  4  1  0  0  0  0
  3  5  1  0  0  0  0
  4  6  1  0  0  0  0
  5  6  1  0  0  0  0
  1  7  1  1  0  0  0
  2  8  1  1  0  0  0
  4  9  1  6  0  0  0
  6 10  1  6  0  0  0
  5 11  1  6  0  0  0
 12 13  1  0  0  0  0
 12 14  1  0  0  0  0
 13 15  1  0  0  0  0
 14 16  1  0  0  0  0
 15 17  1  0  0  0  0
 16 17  1  0  0  0  0
 13  7  1  6  0  0  0
 15 18  1  1  0  0  0
 17 19  1  1  0  0  0
 16 20  1  1  0  0  0
 21 20  1  0  0  0  0
  8 22  1  0  0  0  0
 19 23  1  0  0  0  0
 12 24  1  1  0  0  0
M  END
> <ID>
CHEBI:62149

> <NAME>
alpha-L-Fucp2Me-(1->2)-beta-D-Galp4Me

> <DEFINITION>
A disaccharide derivative consisting of a 2-O-methylfucosyl residue joined by an α-(1→2)-linkage to a 4-O-methyl-β-D-galactose.

> <STAR>
3

> <SYNONYM>
2-O-methyl-alpha-L-fucopyranosyl-(1->2)-4-O-methyl-beta-D-galactopyranose; 2-O-Me-alpha-L-Fucp-(1-2)-4-O-Me-beta-D-Galp; 2-O-(6-deoxy-2-O-methyl-alpha-L-galactopyranosyl)-4-O-methyl-beta-D-galactopyranose

> <IUPAC_NAME>
6-deoxy-2-O-methyl-alpha-L-galactopyranosyl-(1->2)-4-O-methyl-beta-D-galactopyranose

> <FORMULA>
C14H26O10

> <MASS>
354.35020

> <MONOISOTOPIC_MASS>
354.15260

> <CHARGE>
0

> <SMILES>
CO[C@H]1[C@@H](CO)O[C@@H](O)[C@H](O[C@@H]2O[C@@H](C)[C@@H](O)[C@@H](O)[C@@H]2OC)[C@H]1O

> <INCHI>
InChI=1S/C14H26O10/c1-5-7(16)8(17)12(21-3)14(22-5)24-11-9(18)10(20-2)6(4-15)23-13(11)19/h5-19H,4H2,1-3H3/t5-,6+,7+,8+,9-,10-,11+,12-,13+,14-/m0/s1

> <INCHIKEY>
OSJQEDGEZWBUPY-SJSQHKLMSA-N

> <PUBMED_CITATION>
17087964

$$$$

Marvin  05181115162D          

 36 38  0  0  1  0            999 V2000
   10.6650  -13.4739    0.0000 C   0  0  1  0  0  0  0  0  0  0  0  0
   11.3794  -13.8864    0.0000 C   0  0  2  0  0  0  0  0  0  0  0  0
    9.9505  -13.8864    0.0000 O   0  0  0  0  0  0  0  0  0  0  0  0
   11.3794  -14.7114    0.0000 C   0  0  1  0  0  0  0  0  0  0  0  0
    9.9505  -14.7114    0.0000 C   0  0  2  0  0  0  0  0  0  0  0  0
   10.6650  -15.1239    0.0000 C   0  0  1  0  0  0  0  0  0  0  0  0
   10.6649  -12.6489    0.0000 O   0  0  0  0  0  0  0  0  0  0  0  0
   12.0939  -13.4739    0.0000 O   0  0  0  0  0  0  0  0  0  0  0  0
   12.0939  -15.1239    0.0000 O   0  0  0  0  0  0  0  0  0  0  0  0
   10.6650  -15.9489    0.0000 O   0  0  0  0  0  0  0  0  0  0  0  0
    9.2361  -15.1239    0.0000 C   0  0  0  0  0  0  0  0  0  0  0  0
    9.9505  -11.4113    0.0000 C   0  0  1  0  0  0  0  0  0  0  0  0
    9.9505  -12.2364    0.0000 C   0  0  1  0  0  0  0  0  0  0  0  0
    9.2359  -10.9988    0.0000 O   0  0  0  0  0  0  0  0  0  0  0  0
    9.2359  -12.6489    0.0000 C   0  0  2  0  0  0  0  0  0  0  0  0
    8.5215  -11.4113    0.0000 C   0  0  1  0  0  0  0  0  0  0  0  0
    8.5215  -12.2364    0.0000 C   0  0  2  0  0  0  0  0  0  0  0  0
    9.2359  -13.4739    0.0000 O   0  0  0  0  0  0  0  0  0  0  0  0
    7.8071  -12.6489    0.0000 O   0  0  0  0  0  0  0  0  0  0  0  0
    7.8071  -10.9988    0.0000 C   0  0  0  0  0  0  0  0  0  0  0  0
    7.0926  -11.4113    0.0000 O   0  0  0  0  0  0  0  0  0  0  0  0
   10.6649  -10.9988    0.0000 O   0  0  0  0  0  0  0  0  0  0  0  0
   11.3794   -8.9364    0.0000 C   0  0  2  0  0  0  0  0  0  0  0  0
   11.3794   -9.7614    0.0000 C   0  0  1  0  0  0  0  0  0  0  0  0
   10.6649   -8.5239    0.0000 O   0  0  0  0  0  0  0  0  0  0  0  0
   10.6649  -10.1739    0.0000 C   0  0  2  0  0  0  0  0  0  0  0  0
    9.9504   -8.9364    0.0000 C   0  0  1  0  0  0  0  0  0  0  0  0
    9.9504   -9.7614    0.0000 C   0  0  2  0  0  0  0  0  0  0  0  0
   12.0939   -8.5239    0.0000 O   0  0  0  0  0  0  0  0  0  0  0  0
   12.0939  -10.1739    0.0000 N   0  0  0  0  0  0  0  0  0  0  0  0
    9.2361  -10.1739    0.0000 O   0  0  0  0  0  0  0  0  0  0  0  0
    9.2361   -8.5239    0.0000 C   0  0  0  0  0  0  0  0  0  0  0  0
    8.5216   -8.9364    0.0000 O   0  0  0  0  0  0  0  0  0  0  0  0
   12.0963  -11.0013    0.0000 C   0  0  0  0  0  0  0  0  0  0  0  0
   12.8119  -11.4188    0.0000 C   0  0  0  0  0  0  0  0  0  0  0  0
   11.3806  -11.4188    0.0000 O   0  0  0  0  0  0  0  0  0  0  0  0
  1  2  1  0  0  0  0
  1  3  1  0  0  0  0
  2  4  1  0  0  0  0
  3  5  1  0  0  0  0
  4  6  1  0  0  0  0
  5  6  1  0  0  0  0
  1  7  1  1  0  0  0
  2  8  1  1  0  0  0
  4  9  1  6  0  0  0
  6 10  1  6  0  0  0
  5 11  1  6  0  0  0
 12 13  1  0  0  0  0
 12 14  1  0  0  0  0
 13 15  1  0  0  0  0
 14 16  1  0  0  0  0
 15 17  1  0  0  0  0
 16 17  1  0  0  0  0
 13  7  1  6  0  0  0
 15 18  1  1  0  0  0
 17 19  1  1  0  0  0
 16 20  1  1  0  0  0
 21 20  1  0  0  0  0
 12 22  1  1  0  0  0
 23 24  1  0  0  0  0
 23 25  1  0  0  0  0
 24 26  1  0  0  0  0
 25 27  1  0  0  0  0
 26 28  1  0  0  0  0
 27 28  1  0  0  0  0
 23 29  1  6  0  0  0
 24 30  1  6  0  0  0
 26 22  1  1  0  0  0
 28 31  1  1  0  0  0
 27 32  1  1  0  0  0
 33 32  1  0  0  0  0
 30 34  1  0  0  0  0
 34 35  1  0  0  0  0
 34 36  2  0  0  0  0
M  END
> <ID>
CHEBI:62152

> <NAME>
alpha-L-Fucp-(1->2)-beta-D-Galp-(1->3)-alpha-D-GalpNAc

> <DEFINITION>
An amino trisaccharide consisting of α-L-fucopyranose, β-D-galactopyranose and N-acetyl-α-D-galactopyranosamine residues joined in sequence with a (1→2)- and a (1→3)-linkage, respectively.

> <STAR>
3

> <SYNONYM>
Fucalpha1-2Galbeta1-3GalNAcalpha; Fuca1-2Galb1-3GalNAca; alphaFuc(1-2)betaGal(1-3)alphaGalNAc; alpha-L-Fucp-(1-2)-beta-D-Galp-(1-3)-alpha-D-GalpNAc; alpha-L-fucosyl-(1->2)-beta-D-galactosyl-(1->3)-N-acetyl-alpha-D-galactosamine; alpha-L-Fuc-(1->2)-beta-D-Gal-(1->3)-alpha-D-GalNAc; 6-deoxy-alpha-L-galactopyranosyl-(1->2)-beta-D-galactopyranosyl-(1->3)-2-acetamido-2-deoxy-alpha-D-galactopyranose; 6-deoxy-alpha-L-galactopyranosyl-(1->2)-beta-D-galactopyranosyl-(1->3)-2-(acetylamino)-2-deoxy-alpha-D-galactopyranose

> <IUPAC_NAME>
alpha-L-fucopyranosyl-(1->2)-beta-D-galactopyranosyl-(1->3)-2-acetamido-2-deoxy-alpha-D-galactopyranose

> <FORMULA>
C20H35NO15

> <MASS>
529.48960

> <MONOISOTOPIC_MASS>
529.20067

> <CHARGE>
0

> <SMILES>
C[C@@H]1O[C@@H](O[C@@H]2[C@@H](O)[C@@H](O)[C@@H](CO)O[C@H]2O[C@H]2[C@@H](O)[C@@H](CO)O[C@H](O)[C@@H]2NC(C)=O)[C@@H](O)[C@H](O)[C@@H]1O

> <INCHI>
InChI=1S/C20H35NO15/c1-5-10(25)13(28)15(30)19(32-5)36-17-14(29)11(26)7(3-22)34-20(17)35-16-9(21-6(2)24)18(31)33-8(4-23)12(16)27/h5,7-20,22-23,25-31H,3-4H2,1-2H3,(H,21,24)/t5-,7+,8+,9+,10+,11-,12-,13+,14-,15-,16+,17+,18-,19-,20-/m0/s1

> <INCHIKEY>
MGSDFCKWGHNUSM-AKRVIRTESA-N

> <PUBMED_CITATION>
1609521; 17087964; 19443021; 25568069; 31537530

$$$$

Marvin  05181116032D          

 24 24  0  0  1  0            999 V2000
   13.0969   -6.6599    0.0000 O   0  0  0  0  0  0  0  0  0  0  0  0
   13.8114   -4.5974    0.0000 C   0  0  1  0  0  0  0  0  0  0  0  0
   13.8114   -5.4224    0.0000 C   0  0  1  0  0  0  0  0  0  0  0  0
   13.0970   -4.1849    0.0000 O   0  0  0  0  0  0  0  0  0  0  0  0
   13.0970   -5.8349    0.0000 C   0  0  1  0  0  0  0  0  0  0  0  0
   12.3825   -4.5974    0.0000 C   0  0  2  0  0  0  0  0  0  0  0  0
   12.3825   -5.4224    0.0000 C   0  0  2  0  0  0  0  0  0  0  0  0
   14.5259   -5.8349    0.0000 O   0  0  0  0  0  0  0  0  0  0  0  0
   11.6681   -5.8349    0.0000 O   0  0  0  0  0  0  0  0  0  0  0  0
   11.6681   -4.1849    0.0000 C   0  0  0  0  0  0  0  0  0  0  0  0
   14.5259   -4.1849    0.0000 O   0  0  0  0  0  0  0  0  0  0  0  0
   15.2416   -2.1273    0.0000 O   0  0  0  0  0  0  0  0  0  0  0  0
   13.0845   -3.3611    0.0000 O   0  0  0  0  0  0  0  0  0  0  0  0
   13.8055   -2.9510    0.0000 C   0  0  0  0  0  0  0  0  0  0  0  0
   14.5264   -3.3611    0.0000 C   0  0  2  0  0  0  0  0  0  0  0  0
   15.2416   -2.9510    0.0000 C   0  0  2  0  0  0  0  0  0  0  0  0
   15.9568   -3.3611    0.0000 C   0  0  2  0  0  0  0  0  0  0  0  0
   16.6776   -2.9510    0.0000 C   0  0  0  0  0  0  0  0  0  0  0  0
   17.3987   -3.3611    0.0000 O   0  0  0  0  0  0  0  0  0  0  0  0
   15.9573   -4.1849    0.0000 O   0  0  0  0  0  0  0  0  0  0  0  0
   12.3727   -2.9438    0.0000 P   0  0  0  0  0  0  0  0  0  0  0  0
   11.6556   -3.3518    0.0000 O   0  0  0  0  0  0  0  0  0  0  0  0
   12.3781   -2.1190    0.0000 O   0  0  0  0  0  0  0  0  0  0  0  0
   12.3727   -3.7689    0.0000 O   0  0  0  0  0  0  0  0  0  0  0  0
  2  3  1  0  0  0  0
  2  4  1  0  0  0  0
  3  5  1  0  0  0  0
  4  6  1  0  0  0  0
  5  7  1  0  0  0  0
  6  7  1  0  0  0  0
  3  8  1  6  0  0  0
  5  1  1  6  0  0  0
  7  9  1  1  0  0  0
  6 10  1  6  0  0  0
 13 14  1  0  0  0  0
 14 15  1  0  0  0  0
 15 16  1  0  0  0  0
 16 17  1  0  0  0  0
 17 18  1  0  0  0  0
 18 19  1  0  0  0  0
 15 11  1  6  0  0  0
 16 12  1  1  0  0  0
 17 20  1  6  0  0  0
  2 11  1  1  0  0  0
 13 21  1  0  0  0  0
 21 22  1  0  0  0  0
 21 23  2  0  0  0  0
 21 24  1  0  0  0  0
M  END
> <ID>
CHEBI:62157

> <NAME>
alpha-L-Rhap-(1->4)-D-ribitol-5-phosphate

> <DEFINITION>
A disaccharide derivative consisting of D-ribitol-5-phosphate having an α-L-rhamnosyl residue attached at the 4-position.

> <STAR>
3

> <SYNONYM>
alpha-L-rhamnosyl-(1->4)-D-ribitol-5-phosphate; alpha-L-Rha-(1->4)-D-ribitol-5-phosphate; 6-deoxy-alpha-L-mannopyranosyl-(1->4)-5-O-phosphono-D-ribitol; 4-O-(alpha-L-rhamnopyranosyl)-5-O-phosphono-D-ribitol; 4-O-(6-deoxy-alpha-L-mannopyranosyl)-5-O-phosphono-D-ribitol

> <IUPAC_NAME>
alpha-L-rhamnopyranosyl-(1->4)-5-O-phosphono-D-ribitol

> <FORMULA>
C11H23O12P

> <MASS>
378.26690

> <MONOISOTOPIC_MASS>
378.09271

> <CHARGE>
0

> <SMILES>
C[C@@H]1O[C@@H](O[C@H](COP(O)(O)=O)[C@@H](O)[C@@H](O)CO)[C@H](O)[C@H](O)[C@H]1O

> <INCHI>
InChI=1S/C11H23O12P/c1-4-7(14)9(16)10(17)11(22-4)23-6(3-21-24(18,19)20)8(15)5(13)2-12/h4-17H,2-3H2,1H3,(H2,18,19,20)/t4-,5-,6+,7-,8-,9+,10+,11-/m0/s1

> <INCHIKEY>
LGIBBNHSMMNNOH-WFSGIGAVSA-N

> <PUBMED_CITATION>
11159969

$$$$

Marvin  05201110372D          

 40 42  0  0  1  0            999 V2000
   12.8732   -3.5787    0.0000 O   0  0  0  0  0  0  0  0  0  0  0  0
   12.1586   -4.0186    0.0000 C   0  0  2  0  0  0  0  0  0  0  0  0
   12.1586   -4.8431    0.0000 C   0  0  1  0  0  0  0  0  0  0  0  0
   11.4439   -3.6062    0.0000 O   0  0  0  0  0  0  0  0  0  0  0  0
   11.4439   -5.2554    0.0000 C   0  0  2  0  0  0  0  0  0  0  0  0
   12.8732   -5.2554    0.0000 N   0  0  0  0  0  0  0  0  0  0  0  0
   10.7293   -4.0186    0.0000 C   0  0  1  0  0  0  0  0  0  0  0  0
   10.7293   -4.8431    0.0000 C   0  0  2  0  0  0  0  0  0  0  0  0
   11.4439   -6.0249    0.0000 O   0  0  0  0  0  0  0  0  0  0  0  0
   12.8732   -6.0525    0.0000 C   0  0  0  0  0  0  0  0  0  0  0  0
   10.0148   -3.6337    0.0000 C   0  0  0  0  0  0  0  0  0  0  0  0
   10.0148   -5.2554    0.0000 O   0  0  0  0  0  0  0  0  0  0  0  0
   13.5878   -6.4648    0.0000 C   0  0  0  0  0  0  0  0  0  0  0  0
   12.1586   -6.4648    0.0000 O   0  0  0  0  0  0  0  0  0  0  0  0
    9.3276   -4.0735    0.0000 O   0  0  0  0  0  0  0  0  0  0  0  0
    8.5896   -3.6742    0.0000 C   0  0  1  0  0  0  0  0  0  0  0  0
    7.8753   -4.0863    0.0000 C   0  0  1  0  0  0  0  0  0  0  0  0
    8.5896   -2.8492    0.0000 O   0  0  0  0  0  0  0  0  0  0  0  0
    7.1611   -3.6733    0.0000 C   0  0  2  0  0  0  0  0  0  0  0  0
    7.8753   -4.9113    0.0000 N   0  0  0  0  0  0  0  0  0  0  0  0
    7.8753   -2.4362    0.0000 C   0  0  1  0  0  0  0  0  0  0  0  0
    7.1611   -2.8483    0.0000 C   0  0  1  0  0  0  0  0  0  0  0  0
    6.4945   -4.0579    0.0000 O   0  0  0  0  0  0  0  0  0  0  0  0
    7.1849   -5.3097    0.0000 C   0  0  0  0  0  0  0  0  0  0  0  0
    7.8515   -1.6249    0.0000 C   0  0  0  0  0  0  0  0  0  0  0  0
    6.4468   -2.4354    0.0000 O   0  0  0  0  0  0  0  0  0  0  0  0
    7.1596   -6.0589    0.0000 C   0  0  0  0  0  0  0  0  0  0  0  0
    6.4707   -4.8967    0.0000 O   0  0  0  0  0  0  0  0  0  0  0  0
    7.1272   -1.2495    0.0000 O   0  0  0  0  0  0  0  0  0  0  0  0
   10.7295   -6.4375    0.0000 C   0  0  1  0  0  0  0  0  0  0  0  0
   10.7295   -7.2625    0.0000 C   0  0  1  0  0  0  0  0  0  0  0  0
   10.0149   -6.0250    0.0000 O   0  0  0  0  0  0  0  0  0  0  0  0
   10.0149   -7.6750    0.0000 C   0  0  2  0  0  0  0  0  0  0  0  0
    9.3005   -6.4375    0.0000 C   0  0  1  0  0  0  0  0  0  0  0  0
    9.3005   -7.2625    0.0000 C   0  0  2  0  0  0  0  0  0  0  0  0
   11.4439   -7.6750    0.0000 O   0  0  0  0  0  0  0  0  0  0  0  0
   10.0149   -8.5000    0.0000 O   0  0  0  0  0  0  0  0  0  0  0  0
    8.5860   -7.6750    0.0000 O   0  0  0  0  0  0  0  0  0  0  0  0
    8.5860   -6.0250    0.0000 C   0  0  0  0  0  0  0  0  0  0  0  0
    8.1244   -6.5639    0.0000 O   0  0  0  0  0  0  0  0  0  0  0  0
  2  1  1  6  0  0  0
  2  3  1  0  0  0  0
  2  4  1  0  0  0  0
  3  5  1  0  0  0  0
  3  6  1  6  0  0  0
  4  7  1  0  0  0  0
  5  8  1  0  0  0  0
  5  9  1  1  0  0  0
  6 10  1  0  0  0  0
  7 11  1  1  0  0  0
  8 12  1  1  0  0  0
 10 13  1  0  0  0  0
 10 14  2  0  0  0  0
  7  8  1  0  0  0  0
 11 15  1  0  0  0  0
 16 15  1  1  0  0  0
 16 17  1  0  0  0  0
 16 18  1  0  0  0  0
 17 19  1  0  0  0  0
 17 20  1  6  0  0  0
 18 21  1  0  0  0  0
 19 22  1  0  0  0  0
 19 23  1  1  0  0  0
 20 24  1  0  0  0  0
 21 25  1  1  0  0  0
 22 26  1  6  0  0  0
 24 27  1  0  0  0  0
 24 28  2  0  0  0  0
 21 22  1  0  0  0  0
 25 29  1  0  0  0  0
 30 31  1  0  0  0  0
 30 32  1  0  0  0  0
 31 33  1  0  0  0  0
 32 34  1  0  0  0  0
 33 35  1  0  0  0  0
 34 35  1  0  0  0  0
 30  9  1  1  0  0  0
 31 36  1  6  0  0  0
 33 37  1  1  0  0  0
 35 38  1  1  0  0  0
 34 39  1  1  0  0  0
 40 39  1  0  0  0  0
M  END
> <ID>
CHEBI:62158

> <NAME>
beta-D-Galp-(1->3)-[beta-D-GlcpNAc-(1->6)]-alpha-D-GalpNAc

> <DEFINITION>
The trisaccharide β-D-Gal-(1→3)-[β-D-GlcNAc-(1→6)]-D-GalNAc with α configuration at the anomeric centre of the N-acetylglucosamine residue at the reducing end.

> <STAR>
3

> <SYNONYM>
GlcNAcbeta1-6(Galbeta1-3)GalNAcalpha; GlcNAcb1-6(Galb1-3)GalNAca; Galbeta1-3(GlcNAcbeta1-6)GalNAcalpha; beta-D-Gal-(1->3)-[beta-D-GlcNAc-(1->6)]-alpha-D-GalNAc

> <IUPAC_NAME>
2-acetamido-2-deoxy-beta-D-glucopyranosyl-(1->6)-[beta-D-galactopyranosyl-(1->3)]-2-acetamido-2-deoxy-alpha-D-galactopyranose

> <FORMULA>
C22H38N2O16

> <MASS>
586.54090

> <MONOISOTOPIC_MASS>
586.22213

> <CHARGE>
0

> <SMILES>
CC(=O)N[C@H]1[C@@H](O)O[C@H](CO[C@@H]2O[C@H](CO)[C@@H](O)[C@H](O)[C@H]2NC(C)=O)[C@H](O)[C@@H]1O[C@@H]1O[C@H](CO)[C@H](O)[C@H](O)[C@H]1O

> <INCHI>
InChI=1S/C22H38N2O16/c1-6(27)23-11-16(32)13(29)8(3-25)38-21(11)36-5-10-15(31)19(12(20(35)37-10)24-7(2)28)40-22-18(34)17(33)14(30)9(4-26)39-22/h8-22,25-26,29-35H,3-5H2,1-2H3,(H,23,27)(H,24,28)/t8-,9-,10-,11-,12-,13-,14+,15+,16-,17+,18-,19-,20+,21-,22+/m1/s1

> <INCHIKEY>
AULDNGHDBFNGGC-XYVIJKTMSA-N

> <PUBMED_CITATION>
19443021; 21402433; 25568069; 31537530

$$$$

Marvin  05181116522D          

 37 39  0  0  1  0            999 V2000
    8.6557  -12.4844    0.0000 C   0  0  2  0  0  0  0  0  0  0  0  0
    8.6557  -13.3094    0.0000 C   0  0  1  0  0  0  0  0  0  0  0  0
    7.9412  -12.0719    0.0000 O   0  0  0  0  0  0  0  0  0  0  0  0
    7.9412  -13.7219    0.0000 C   0  0  2  0  0  0  0  0  0  0  0  0
    7.2268  -12.4844    0.0000 C   0  0  1  0  0  0  0  0  0  0  0  0
    7.2268  -13.3094    0.0000 C   0  0  2  0  0  0  0  0  0  0  0  0
    9.3702  -12.0719    0.0000 O   0  0  0  0  0  0  0  0  0  0  0  0
    9.3702  -13.7219    0.0000 O   0  0  0  0  0  0  0  0  0  0  0  0
    7.9412  -14.5469    0.0000 O   0  0  0  0  0  0  0  0  0  0  0  0
    6.5123  -13.7219    0.0000 O   0  0  0  0  0  0  0  0  0  0  0  0
    6.5123  -12.0719    0.0000 C   0  0  0  0  0  0  0  0  0  0  0  0
    5.7978  -12.4844    0.0000 O   0  0  0  0  0  0  0  0  0  0  0  0
   11.5137  -10.8344    0.0000 C   0  0  1  0  0  0  0  0  0  0  0  0
   11.5137  -11.6594    0.0000 C   0  0  1  0  0  0  0  0  0  0  0  0
   10.7991  -10.4219    0.0000 O   0  0  0  0  0  0  0  0  0  0  0  0
   10.7991  -12.0719    0.0000 C   0  0  2  0  0  0  0  0  0  0  0  0
   10.0847  -10.8344    0.0000 C   0  0  1  0  0  0  0  0  0  0  0  0
   10.0847  -11.6594    0.0000 C   0  0  2  0  0  0  0  0  0  0  0  0
   12.2281  -10.4219    0.0000 O   0  0  0  0  0  0  0  0  0  0  0  0
   12.2281  -12.0719    0.0000 O   0  0  0  0  0  0  0  0  0  0  0  0
   10.7991  -12.8969    0.0000 O   0  0  0  0  0  0  0  0  0  0  0  0
    9.3702  -10.4219    0.0000 C   0  0  0  0  0  0  0  0  0  0  0  0
    8.6557  -10.8344    0.0000 O   0  0  0  0  0  0  0  0  0  0  0  0
   12.9426   -8.3593    0.0000 C   0  0  2  0  0  0  0  0  0  0  0  0
   12.9426   -9.1843    0.0000 C   0  0  1  0  0  0  0  0  0  0  0  0
   12.2281   -7.9468    0.0000 O   0  0  0  0  0  0  0  0  0  0  0  0
   12.2281   -9.5968    0.0000 C   0  0  2  0  0  0  0  0  0  0  0  0
   11.5137   -8.3593    0.0000 C   0  0  1  0  0  0  0  0  0  0  0  0
   11.5137   -9.1843    0.0000 C   0  0  2  0  0  0  0  0  0  0  0  0
   13.6571   -7.9468    0.0000 O   0  0  0  0  0  0  0  0  0  0  0  0
   13.6571   -9.5969    0.0000 N   0  0  0  0  0  0  0  0  0  0  0  0
   10.7992   -9.5968    0.0000 O   0  0  0  0  0  0  0  0  0  0  0  0
   10.7992   -7.9469    0.0000 C   0  0  0  0  0  0  0  0  0  0  0  0
   10.0847   -8.3594    0.0000 O   0  0  0  0  0  0  0  0  0  0  0  0
   13.6571  -10.4219    0.0000 C   0  0  0  0  0  0  0  0  0  0  0  0
   14.3716  -10.8344    0.0000 O   0  0  0  0  0  0  0  0  0  0  0  0
   12.9426  -10.8344    0.0000 C   0  0  0  0  0  0  0  0  0  0  0  0
  1  2  1  0  0  0  0
  1  3  1  0  0  0  0
  2  4  1  0  0  0  0
  3  5  1  0  0  0  0
  4  6  1  0  0  0  0
  5  6  1  0  0  0  0
  1  7  1  6  0  0  0
  2  8  1  6  0  0  0
  4  9  1  1  0  0  0
  6 10  1  1  0  0  0
  5 11  1  1  0  0  0
 12 11  1  0  0  0  0
 13 14  1  0  0  0  0
 13 15  1  0  0  0  0
 14 16  1  0  0  0  0
 15 17  1  0  0  0  0
 16 18  1  0  0  0  0
 17 18  1  0  0  0  0
 13 19  1  1  0  0  0
 14 20  1  6  0  0  0
 16 21  1  1  0  0  0
 18  7  1  1  0  0  0
 17 22  1  1  0  0  0
 23 22  1  0  0  0  0
 24 25  1  0  0  0  0
 24 26  1  0  0  0  0
 25 27  1  0  0  0  0
 26 28  1  0  0  0  0
 27 29  1  0  0  0  0
 28 29  1  0  0  0  0
 24 30  1  6  0  0  0
 25 31  1  6  0  0  0
 27 19  1  1  0  0  0
 29 32  1  1  0  0  0
 28 33  1  1  0  0  0
 34 33  1  0  0  0  0
 36 35  2  0  0  0  0
 37 35  1  0  0  0  0
 31 35  1  0  0  0  0
M  END
> <ID>
CHEBI:62160

> <NAME>
alpha-D-Galp-(1->4)-beta-D-Galp-(1->3)-alpha-D-GalpNAc

> <DEFINITION>
An amino trisaccharide in which two galactose residues, linked α(1→4), are linked β(1→3) to an N-acetylgalactosamine residue.

> <STAR>
3

> <SYNONYM>
alpha-D-Gal-(1->4)-beta-D-Gal-(1->3)-alpha-D-GalNAc

> <IUPAC_NAME>
alpha-D-galactopyranosyl-(1->4)-beta-D-galactopyranosyl-(1->3)-2-acetamido-2-deoxy-alpha-D-galactopyranose

> <FORMULA>
C20H35NO16

> <MASS>
545.48900

> <MONOISOTOPIC_MASS>
545.19558

> <CHARGE>
0

> <SMILES>
CC(=O)N[C@H]1[C@@H](O)O[C@H](CO)[C@H](O)[C@@H]1O[C@@H]1O[C@H](CO)[C@H](O[C@H]2O[C@H](CO)[C@H](O)[C@H](O)[C@H]2O)[C@H](O)[C@H]1O

> <INCHI>
InChI=1S/C20H35NO16/c1-5(25)21-9-17(11(27)7(3-23)33-18(9)32)37-20-15(31)13(29)16(8(4-24)35-20)36-19-14(30)12(28)10(26)6(2-22)34-19/h6-20,22-24,26-32H,2-4H2,1H3,(H,21,25)/t6-,7-,8-,9-,10+,11+,12+,13-,14-,15-,16+,17-,18+,19-,20+/m1/s1

> <INCHIKEY>
PQZXWXWLEXPPIT-DIAKDLDVSA-N

> <PUBMED_CITATION>
21402433

$$$$

Ketcher 11251908502D 1   1.00000     0.00000     0

 19 19  0     1  0            999 V2000
   12.3934   -7.9460    0.0000 O   0  0  0  0  0  0  0  0  0  0  0  0
   13.2594   -5.4463    0.0000 C   0  0  0  0  0  0  0  0  0  0  0  0
   13.2594   -6.4462    0.0000 C   0  0  0  0  0  0  0  0  0  0  0  0
   12.3934   -4.9465    0.0000 O   0  0  0  0  0  0  0  0  0  0  0  0
   12.3934   -6.8765    0.0000 C   0  0  0  0  0  0  0  0  0  0  0  0
   11.5275   -5.4463    0.0000 C   0  0  0  0  0  0  0  0  0  0  0  0
   11.5275   -6.4462    0.0000 C   0  0  0  0  0  0  0  0  0  0  0  0
   14.1251   -4.9465    0.0000 O   0  0  0  0  0  0  0  0  0  0  0  0
   14.1251   -6.9460    0.0000 N   0  0  0  0  0  0  0  0  0  0  0  0
   10.6618   -6.9460    0.0000 O   0  0  0  0  0  0  0  0  0  0  0  0
   10.6618   -4.9465    0.0000 C   0  0  0  0  0  0  0  0  0  0  0  0
    9.7958   -5.4463    0.0000 O   0  0  0  0  0  0  0  0  0  0  0  0
   14.1251   -7.9460    0.0000 C   0  0  0  0  0  0  0  0  0  0  0  0
   14.9910   -8.4459    0.0000 O   0  0  0  0  0  0  0  0  0  0  0  0
   13.2593   -8.4459    0.0000 C   0  0  0  0  0  0  0  0  0  0  0  0
    8.9300   -4.9465    0.0000 P   0  0  0  0  0  0  0  0  0  0  0  0
    8.0641   -5.4463    0.0000 O   0  0  0  0  0  0  0  0  0  0  0  0
    8.9300   -3.9467    0.0000 O   0  0  0  0  0  0  0  0  0  0  0  0
    8.6713   -5.9122    0.0000 O   0  0  0  0  0  0  0  0  0  0  0  0
  2  3  1  0     0  0
  2  4  1  0     0  0
  3  5  1  0     0  0
  4  6  1  0     0  0
  5  7  1  0     0  0
  6  7  1  0     0  0
  2  8  1  6     0  0
  3  9  1  1     0  0
  5  1  1  1     0  0
  7 10  1  6     0  0
  6 11  1  1     0  0
 12 11  1  0     0  0
 14 13  2  0     0  0
 15 13  1  0     0  0
  9 13  1  0     0  0
 12 16  1  0     0  0
 16 17  1  0     0  0
 16 18  2  0     0  0
 16 19  1  0     0  0
M  END
> <ID>
CHEBI:62165

> <NAME>
N-acetyl-alpha-D-mannosamine 6-phosphate

> <DEFINITION>
An N-acetyl-D-mannosamine 6-phosphate having α-configuration at the anomeric centre.

> <STAR>
3

> <SYNONYM>
2-acetamido-2-deoxy-6-O-phosphono-alpha-D-mannose; 2-acetamido-2-deoxy-6-O-phosphono-alpha-D-mannopyranose; 2-(acetylamino)-2-deoxy-6-O-phosphono-alpha-D-mannopyranose

> <IUPAC_NAME>
2-acetamido-2-deoxy-alpha-D-mannopyranose 6-(dihydrogen phosphate)

> <FORMULA>
C8H16NO9P

> <MASS>
301.188

> <MONOISOTOPIC_MASS>
301.05627

> <CHARGE>
0

> <SMILES>
O[C@@H]1[C@@H]([C@H](O[C@@H]([C@H]1O)COP(O)(=O)O)O)NC(=O)C

> <INCHI>
InChI=1S/C8H16NO9P/c1-3(10)9-5-7(12)6(11)4(18-8(5)13)2-17-19(14,15)16/h4-8,11-13H,2H2,1H3,(H,9,10)(H2,14,15,16)/t4-,5+,6-,7-,8+/m1/s1

> <INCHIKEY>
BRGMHAYQAZFZDJ-UOLFYFMNSA-N

> <HMDB_ACCESSION>
HMDB0001121

> <PDBECHEM_ACCESSION>
BMX

> <PUBMED_CITATION>
22343627; 23832782

$$$$

Marvin  05191116572D          

 25 26  0  0  1  0            999 V2000
    7.5941   -7.0067    0.0000 O   0  0  0  0  0  0  0  0  0  0  0  0
    6.8796   -7.4192    0.0000 C   0  0  2  0  0  0  0  0  0  0  0  0
    8.3086   -7.4192    0.0000 C   0  0  2  0  0  0  0  0  0  0  0  0
    8.3086   -8.2442    0.0000 C   0  0  2  0  0  0  0  0  0  0  0  0
    7.5941   -8.6567    0.0000 C   0  0  1  0  0  0  0  0  0  0  0  0
    6.8796   -8.2442    0.0000 C   0  0  2  0  0  0  0  0  0  0  0  0
    9.0230   -7.0067    0.0000 O   0  0  0  0  0  0  0  0  0  0  0  0
    9.0230   -8.6567    0.0000 O   0  0  0  0  0  0  0  0  0  0  0  0
    7.5941   -9.4817    0.0000 O   0  0  0  0  0  0  0  0  0  0  0  0
    6.1652   -8.6567    0.0000 O   0  0  0  0  0  0  0  0  0  0  0  0
    6.1651   -7.0067    0.0000 C   0  0  0  0  0  0  0  0  0  0  0  0
    9.7375   -4.9442    0.0000 C   0  0  0  0  0  0  0  0  0  0  0  0
    9.7375   -5.7692    0.0000 C   0  0  1  0  0  0  0  0  0  0  0  0
    9.0230   -4.5317    0.0000 O   0  0  0  0  0  0  0  0  0  0  0  0
    9.0230   -6.1817    0.0000 C   0  0  2  0  0  0  0  0  0  0  0  0
    8.3085   -4.9442    0.0000 C   0  0  1  0  0  0  0  0  0  0  0  0
    8.3085   -5.7692    0.0000 C   0  0  1  0  0  0  0  0  0  0  0  0
   10.4520   -4.5317    0.0000 O   0  0  0  0  0  0  0  0  0  0  0  0
   10.4520   -6.1818    0.0000 N   0  0  0  0  0  0  0  0  0  0  0  0
    7.5940   -6.1817    0.0000 O   0  0  0  0  0  0  0  0  0  0  0  0
    7.5940   -4.5318    0.0000 C   0  0  0  0  0  0  0  0  0  0  0  0
    6.8796   -4.9443    0.0000 O   0  0  0  0  0  0  0  0  0  0  0  0
   11.1664   -5.7693    0.0000 C   0  0  0  0  0  0  0  0  0  0  0  0
   11.1665   -4.9443    0.0000 O   0  0  0  0  0  0  0  0  0  0  0  0
   11.8809   -6.1818    0.0000 C   0  0  0  0  0  0  0  0  0  0  0  0
  2  1  1  0  0  0  0
  3  1  1  0  0  0  0
  3  7  1  1  0  0  0
  3  4  1  0  0  0  0
  4  8  1  1  0  0  0
  4  5  1  0  0  0  0
  5  9  1  6  0  0  0
  5  6  1  0  0  0  0
  6  2  1  0  0  0  0
  6 10  1  6  0  0  0
  2 11  1  6  0  0  0
 12 13  1  0  0  0  0
 12 14  1  0  0  0  0
 13 15  1  0  0  0  0
 14 16  1  0  0  0  0
 15 17  1  0  0  0  0
 16 17  1  0  0  0  0
 12 18  1  0  0  0  0
 13 19  1  6  0  0  0
 15  7  1  1  0  0  0
 17 20  1  6  0  0  0
 16 21  1  1  0  0  0
 22 21  1  0  0  0  0
 24 23  2  0  0  0  0
 25 23  1  0  0  0  0
 19 23  1  0  0  0  0
M  END
> <ID>
CHEBI:62181

> <NAME>
alpha-L-Fucp-(1->3)-D-GlcpNAc

> <DEFINITION>
An amino disaccharide consisting of N-acetyl-D-glucosamine having an α-L-fucosyl residue attached at the 3-position.

> <STAR>
3

> <SYNONYM>
alpha-L-fucosyl-(1->3)-N-acetyl-D-glucosamine; alpha-L-Fuc-(1->3)-D-GlcNAc; 6-deoxy-alpha-L-galactopyranosyl-(1->3)-2-acetamido-2-deoxy-D-glucopyranose; 2-acetamido-2-deoxy-3-O-(alpha-L-fucopyranosyl)-D-glucopyranose; 2-acetamido-2-deoxy-3-O-(6-deoxy-alpha-L-galactopyranosyl)-D-glucopyranose; (GlcNAc)1 (LFuc)1

> <IUPAC_NAME>
alpha-L-fucopyranosyl-(1->3)-2-acetamido-2-deoxy-D-glucopyranose

> <FORMULA>
C14H25NO10

> <MASS>
367.34900

> <MONOISOTOPIC_MASS>
367.14785

> <CHARGE>
0

> <SMILES>
C[C@@H]1O[C@@H](O[C@H]2[C@H](O)[C@@H](CO)OC(O)[C@@H]2NC(C)=O)[C@@H](O)[C@H](O)[C@@H]1O

> <INCHI>
InChI=1S/C14H25NO10/c1-4-8(18)10(20)11(21)14(23-4)25-12-7(15-5(2)17)13(22)24-6(3-16)9(12)19/h4,6-14,16,18-22H,3H2,1-2H3,(H,15,17)/t4-,6+,7+,8+,9+,10+,11-,12+,13?,14-/m0/s1

> <INCHIKEY>
TUXVLTYUDHJDAL-SFHUXEFOSA-N

> <REAXYS_REGISTRY_NUMBER>
1691426

> <KEGG_GLYCAN_ACCESSION>
G00945

> <PUBMED_CITATION>
10601665; 1591768; 9720243

$$$$

Marvin  05201110352D          

 19 19  0  0  1  0            999 V2000
   11.8177   -7.0096    0.0000 C   0  0  1  0  0  0  0  0  0  0  0  0
   11.8177   -7.8346    0.0000 C   0  0  1  0  0  0  0  0  0  0  0  0
   11.1031   -6.5971    0.0000 O   0  0  0  0  0  0  0  0  0  0  0  0
   11.1031   -8.2471    0.0000 C   0  0  2  0  0  0  0  0  0  0  0  0
   10.3885   -7.0096    0.0000 C   0  0  1  0  0  0  0  0  0  0  0  0
   10.3885   -7.8346    0.0000 C   0  0  1  0  0  0  0  0  0  0  0  0
   12.5321   -6.5971    0.0000 O   0  0  0  0  0  0  0  0  0  0  0  0
   12.5321   -8.2471    0.0000 O   0  0  0  0  0  0  0  0  0  0  0  0
   11.1031   -9.0721    0.0000 O   0  0  0  0  0  0  0  0  0  0  0  0
    9.6740   -8.2471    0.0000 N   0  0  0  0  0  0  0  0  0  0  0  0
    9.6740   -6.5971    0.0000 C   0  0  0  0  0  0  0  0  0  0  0  0
   13.2466   -7.8346    0.0000 C   0  0  0  0  0  0  0  0  0  0  0  0
    8.9565   -7.8346    0.0000 C   0  0  0  0  0  0  0  0  0  0  0  0
    7.5276   -7.8358    0.0000 C   0  0  0  0  0  0  0  0  0  0  0  0
    8.9565   -7.0096    0.0000 O   0  0  0  0  0  0  0  0  0  0  0  0
    7.5276   -7.0108    0.0000 O   0  0  0  0  0  0  0  0  0  0  0  0
    6.9411   -8.4222    0.0000 C   0  0  0  0  0  0  0  0  0  0  0  0
    6.7323   -7.6170    0.0000 C   0  0  0  0  0  0  0  0  0  0  0  0
    8.2424   -8.2476    0.0000 C   0  0  0  0  0  0  0  0  0  0  0  0
  1  2  1  0  0  0  0
  1  3  1  0  0  0  0
  2  4  1  0  0  0  0
  3  5  1  0  0  0  0
  4  6  1  0  0  0  0
  5  6  1  0  0  0  0
  1  7  1  1  0  0  0
  2  8  1  6  0  0  0
  4  9  1  1  0  0  0
  6 10  1  6  0  0  0
  5 11  1  1  0  0  0
  8 12  1  0  0  0  0
 10 13  1  0  0  0  0
 13 15  2  0  0  0  0
 14 16  1  0  0  0  0
 14 17  1  0  0  0  0
 14 18  1  0  0  0  0
 13 19  1  0  0  0  0
 19 14  1  0  0  0  0
M  END
> <ID>
CHEBI:62183

> <NAME>
beta-anthropyranose

> <DEFINITION>
An amino monosaccharide consisting of D-glucose having a 3-hydroxy-3-methylbutanamido group at the 4-position, a 2-O-methyl group and lacking the 6-hydroxy group.

> <STAR>
3

> <SYNONYM>
beta-anthrose; anthrose; 4,6-dideoxy-4-[(3-hydroxy-3-methylbutanoyl)amino]-2-O-methyl-beta-D-glucose; 4,6-dideoxy-4-(3-hydroxy-3-methylbutanamido)-2-O-methyl-beta-D-glucopyranose

> <IUPAC_NAME>
4,6-dideoxy-4-[(3-hydroxy-3-methylbutanoyl)amino]-2-O-methyl-beta-D-glucopyranose

> <FORMULA>
C12H23NO6

> <MASS>
277.31410

> <MONOISOTOPIC_MASS>
277.15254

> <CHARGE>
0

> <SMILES>
CO[C@H]1[C@H](O)O[C@H](C)[C@@H](NC(=O)CC(C)(C)O)[C@@H]1O

> <INCHI>
InChI=1S/C12H23NO6/c1-6-8(13-7(14)5-12(2,3)17)9(15)10(18-4)11(16)19-6/h6,8-11,15-17H,5H2,1-4H3,(H,13,14)/t6-,8-,9+,10-,11-/m1/s1

> <INCHIKEY>
XXOSQKWOPXPGQY-WVTGURRWSA-N

> <REAXYS_REGISTRY_NUMBER>
10015270

> <PUBMED_CITATION>
15152001; 15922317; 17133642; 17661521; 18155682; 18245286; 18562275; 18563936; 19226390; 19793896; 20675481; 21571994

$$$$

Marvin  05201110362D          

 37 39  0  0  1  0            999 V2000
   11.4232  -20.3787    0.0000 C   0  0  0  0  0  0  0  0  0  0  0  0
   10.2714  -21.0436    0.0000 C   0  0  0  0  0  0  0  0  0  0  0  0
   11.4233  -19.0486    0.0000 O   0  0  0  0  0  0  0  0  0  0  0  0
    9.1196  -20.3785    0.0000 C   0  0  0  0  0  0  0  0  0  0  0  0
   10.2715  -18.3836    0.0000 C   0  0  0  0  0  0  0  0  0  0  0  0
    9.1196  -19.0486    0.0000 C   0  0  0  0  0  0  0  0  0  0  0  0
   12.5750  -21.0437    0.0000 O   0  0  0  0  0  0  0  0  0  0  0  0
   10.2713  -22.3736    0.0000 N   0  0  0  0  0  0  0  0  0  0  0  0
    7.9677  -21.0435    0.0000 O   0  0  0  0  0  0  0  0  0  0  0  0
    7.9679  -18.3835    0.0000 O   0  0  0  0  0  0  0  0  0  0  0  0
   10.2715  -17.0536    0.0000 C   0  0  0  0  0  0  0  0  0  0  0  0
   11.4233  -16.3887    0.0000 O   0  0  0  0  0  0  0  0  0  0  0  0
    9.1150  -23.0468    0.0000 C   0  0  0  0  0  0  0  0  0  0  0  0
    9.1197  -24.3767    0.0000 C   0  0  0  0  0  0  0  0  0  0  0  0
    7.9608  -22.3858    0.0000 O   0  0  0  0  0  0  0  0  0  0  0  0
    7.9591  -17.0616    0.0000 C   0  0  0  0  0  0  0  0  0  0  0  0
    6.8043  -16.4017    0.0000 C   0  0  0  0  0  0  0  0  0  0  0  0
    9.1080  -16.3914    0.0000 O   0  0  0  0  0  0  0  0  0  0  0  0
    6.7984  -15.0717    0.0000 C   0  0  0  0  0  0  0  0  0  0  0  0
    9.1020  -15.0614    0.0000 C   0  0  0  0  0  0  0  0  0  0  0  0
    7.9473  -14.4016    0.0000 C   0  0  0  0  0  0  0  0  0  0  0  0
    5.6555  -17.0718    0.0000 O   0  0  0  0  0  0  0  0  0  0  0  0
    5.6437  -14.4117    0.0000 O   0  0  0  0  0  0  0  0  0  0  0  0
    7.9414  -13.0716    0.0000 O   0  0  0  0  0  0  0  0  0  0  0  0
   10.2509  -14.3913    0.0000 C   0  0  0  0  0  0  0  0  0  0  0  0
   10.2450  -13.0613    0.0000 O   0  0  0  0  0  0  0  0  0  0  0  0
   17.1823  -21.0437    0.0000 C   0  0  0  0  0  0  0  0  0  0  0  0
   17.1823  -22.3737    0.0000 C   0  0  0  0  0  0  0  0  0  0  0  0
   16.0305  -20.3787    0.0000 O   0  0  0  0  0  0  0  0  0  0  0  0
   16.0305  -23.0387    0.0000 C   0  0  0  0  0  0  0  0  0  0  0  0
   14.8787  -21.0437    0.0000 C   0  0  0  0  0  0  0  0  0  0  0  0
   14.8787  -22.3737    0.0000 C   0  0  0  0  0  0  0  0  0  0  0  0
   18.3341  -20.3787    0.0000 O   0  0  0  0  0  0  0  0  0  0  0  0
   18.3341  -23.0387    0.0000 O   0  0  0  0  0  0  0  0  0  0  0  0
   16.0304  -24.3687    0.0000 O   0  0  0  0  0  0  0  0  0  0  0  0
   13.7269  -23.0387    0.0000 O   0  0  0  0  0  0  0  0  0  0  0  0
   13.7269  -20.3787    0.0000 C   0  0  0  0  0  0  0  0  0  0  0  0
  1  2  1  0  0  0  0
  1  3  1  0  0  0  0
  2  4  1  0  0  0  0
  3  5  1  0  0  0  0
  4  6  1  0  0  0  0
  5  6  1  0  0  0  0
  1  7  1  1  0  0  0
  2  8  1  6  0  0  0
  4  9  1  1  0  0  0
  6 10  1  6  0  0  0
  5 11  1  1  0  0  0
 12 11  1  0  0  0  0
  8 13  1  0  0  0  0
 13 14  1  0  0  0  0
 13 15  2  0  0  0  0
 16 17  1  0  0  0  0
 16 18  1  0  0  0  0
 17 19  1  0  0  0  0
 18 20  1  0  0  0  0
 19 21  1  0  0  0  0
 20 21  1  0  0  0  0
 16 10  1  1  0  0  0
 17 22  1  6  0  0  0
 19 23  1  1  0  0  0
 21 24  1  1  0  0  0
 20 25  1  1  0  0  0
 26 25  1  0  0  0  0
 27 28  1  0  0  0  0
 27 29  1  0  0  0  0
 28 30  1  0  0  0  0
 29 31  1  0  0  0  0
 30 32  1  0  0  0  0
 31 32  1  0  0  0  0
 27 33  1  1  0  0  0
 28 34  1  6  0  0  0
 30 35  1  1  0  0  0
 32 36  1  1  0  0  0
 31 37  1  1  0  0  0
  7 37  1  0  0  0  0
M  END
> <ID>
CHEBI:62184

> <NAME>
beta-D-Galp-(1->4)-beta-D-GlcpNAc-(1->6)-beta-D-Galp

> <DEFINITION>
An amino trisaccharide that consists of a galactopyranose residue attached by a β-(1→4)-linkage to an N-acetylglucosamine residue, that is in turn attached to a second galactopyranose by a β-(1→6)-linkage.

> <STAR>
3

> <SYNONYM>
I trisaccharide; beta-D-galactopyranosyl-(1->4)-2-(acetylamino)-2-deoxy-beta-D-glucopyranosyl-(1->6)-beta-D-galactopyranose; beta-D-Gal-(1->4)-beta-D-GlNAc-(1->6)-beta-D-Gal

> <IUPAC_NAME>
beta-D-galactopyranosyl-(1->4)-2-acetamido-2-deoxy-beta-D-glucopyranosyl-(1->6)-beta-D-galactopyranose

> <FORMULA>
C20H35NO16

> <MASS>
545.48900

> <MONOISOTOPIC_MASS>
545.19558

> <CHARGE>
0

> <SMILES>
CC(=O)N[C@@H]1[C@@H](O)[C@H](O[C@@H]2O[C@H](CO)[C@H](O)[C@H](O)[C@H]2O)[C@@H](CO)O[C@H]1OC[C@H]1O[C@@H](O)[C@H](O)[C@@H](O)[C@H]1O

> <INCHI>
InChI=1S/C20H35NO16/c1-5(24)21-9-12(27)17(37-20-16(31)14(29)10(25)6(2-22)35-20)7(3-23)36-19(9)33-4-8-11(26)13(28)15(30)18(32)34-8/h6-20,22-23,25-32H,2-4H2,1H3,(H,21,24)/t6-,7-,8-,9-,10+,11+,12-,13+,14+,15-,16-,17-,18-,19-,20+/m1/s1

> <INCHIKEY>
VZIJAGXHAXHZJU-CWJNYHMASA-N

> <PUBMED_CITATION>
6194884; 8737251

$$$$

Marvin  05201111112D          

 37 39  0  0  1  0            999 V2000
   11.4232  -20.3787    0.0000 C   0  0  0  0  0  0  0  0  0  0  0  0
   10.2714  -21.0436    0.0000 C   0  0  0  0  0  0  0  0  0  0  0  0
   11.4233  -19.0486    0.0000 O   0  0  0  0  0  0  0  0  0  0  0  0
    9.1196  -20.3785    0.0000 C   0  0  0  0  0  0  0  0  0  0  0  0
   10.2715  -18.3836    0.0000 C   0  0  0  0  0  0  0  0  0  0  0  0
    9.1196  -19.0486    0.0000 C   0  0  0  0  0  0  0  0  0  0  0  0
   12.5750  -21.0437    0.0000 O   0  0  0  0  0  0  0  0  0  0  0  0
   10.2713  -22.3736    0.0000 N   0  0  0  0  0  0  0  0  0  0  0  0
    7.9677  -21.0435    0.0000 O   0  0  0  0  0  0  0  0  0  0  0  0
    7.9679  -18.3835    0.0000 O   0  0  0  0  0  0  0  0  0  0  0  0
   10.2715  -17.0536    0.0000 C   0  0  0  0  0  0  0  0  0  0  0  0
   11.4233  -16.3887    0.0000 O   0  0  0  0  0  0  0  0  0  0  0  0
    9.1150  -23.0468    0.0000 C   0  0  0  0  0  0  0  0  0  0  0  0
    9.1197  -24.3767    0.0000 C   0  0  0  0  0  0  0  0  0  0  0  0
    7.9608  -22.3858    0.0000 O   0  0  0  0  0  0  0  0  0  0  0  0
    7.9591  -17.0616    0.0000 C   0  0  0  0  0  0  0  0  0  0  0  0
    6.8043  -16.4017    0.0000 C   0  0  0  0  0  0  0  0  0  0  0  0
    9.1080  -16.3914    0.0000 O   0  0  0  0  0  0  0  0  0  0  0  0
    6.7984  -15.0717    0.0000 C   0  0  0  0  0  0  0  0  0  0  0  0
    9.1020  -15.0614    0.0000 C   0  0  0  0  0  0  0  0  0  0  0  0
    7.9473  -14.4016    0.0000 C   0  0  0  0  0  0  0  0  0  0  0  0
    5.6555  -17.0718    0.0000 O   0  0  0  0  0  0  0  0  0  0  0  0
    5.6437  -14.4117    0.0000 O   0  0  0  0  0  0  0  0  0  0  0  0
    7.9414  -13.0716    0.0000 O   0  0  0  0  0  0  0  0  0  0  0  0
   10.2509  -14.3913    0.0000 C   0  0  0  0  0  0  0  0  0  0  0  0
   10.2450  -13.0613    0.0000 O   0  0  0  0  0  0  0  0  0  0  0  0
   17.1823  -21.0437    0.0000 C   0  0  0  0  0  0  0  0  0  0  0  0
   17.1823  -22.3737    0.0000 C   0  0  0  0  0  0  0  0  0  0  0  0
   16.0305  -20.3787    0.0000 O   0  0  0  0  0  0  0  0  0  0  0  0
   16.0305  -23.0387    0.0000 C   0  0  0  0  0  0  0  0  0  0  0  0
   14.8787  -21.0437    0.0000 C   0  0  0  0  0  0  0  0  0  0  0  0
   14.8787  -22.3737    0.0000 C   0  0  0  0  0  0  0  0  0  0  0  0
   18.3341  -20.3787    0.0000 O   0  0  0  0  0  0  0  0  0  0  0  0
   18.3341  -23.0387    0.0000 O   0  0  0  0  0  0  0  0  0  0  0  0
   16.0304  -24.3687    0.0000 O   0  0  0  0  0  0  0  0  0  0  0  0
   13.7269  -23.0387    0.0000 O   0  0  0  0  0  0  0  0  0  0  0  0
   13.7269  -20.3787    0.0000 C   0  0  0  0  0  0  0  0  0  0  0  0
  1  2  1  0  0  0  0
  1  3  1  0  0  0  0
  2  4  1  0  0  0  0
  3  5  1  0  0  0  0
  4  6  1  0  0  0  0
  5  6  1  0  0  0  0
  1  7  1  1  0  0  0
  2  8  1  6  0  0  0
  4  9  1  1  0  0  0
  6 10  1  6  0  0  0
  5 11  1  1  0  0  0
 12 11  1  0  0  0  0
  8 13  1  0  0  0  0
 13 14  1  0  0  0  0
 13 15  2  0  0  0  0
 16 17  1  0  0  0  0
 16 18  1  0  0  0  0
 17 19  1  0  0  0  0
 18 20  1  0  0  0  0
 19 21  1  0  0  0  0
 20 21  1  0  0  0  0
 16 10  1  1  0  0  0
 17 22  1  6  0  0  0
 19 23  1  1  0  0  0
 21 24  1  1  0  0  0
 20 25  1  1  0  0  0
 26 25  1  0  0  0  0
 27 28  1  0  0  0  0
 27 29  1  0  0  0  0
 28 30  1  0  0  0  0
 29 31  1  0  0  0  0
 30 32  1  0  0  0  0
 31 32  1  0  0  0  0
 27 33  1  0  0  0  0
 28 34  1  1  0  0  0
 30 35  1  1  0  0  0
 32 36  1  6  0  0  0
 31 37  1  1  0  0  0
  7 37  1  0  0  0  0
M  END
> <ID>
CHEBI:62186

> <NAME>
beta-D-Galp-(1->4)-beta-D-GlcpNAc-(1->6)-D-Manp

> <DEFINITION>
An amino trisaccharide that consists of a galactopyranose residue attached by a β-(1→4)-linkage to an N-acetylglucosamine residue, that is in turn attached to a mannopyranose by a (1→6)-linkage.

> <STAR>
3

> <SYNONYM>
beta-D-galactopyranosyl-(1->4)-2-(acetylamino)-2-deoxy-beta-D-glucopyranosyl-(1->6)-D-mannopyranose; beta-D-Gal-(1->4)-beta-D-GlcNAc-(1->6)-D-Man; (Gal)1 (GlcNAc)1 (Man)1

> <IUPAC_NAME>
beta-D-galactopyranosyl-(1->4)-2-acetamido-2-deoxy-beta-D-glucopyranosyl-(1->6)-D-mannopyranose

> <FORMULA>
C20H35NO16

> <MASS>
545.48900

> <MONOISOTOPIC_MASS>
545.19558

> <CHARGE>
0

> <SMILES>
CC(=O)N[C@@H]1[C@@H](O)[C@H](O[C@@H]2O[C@H](CO)[C@H](O)[C@H](O)[C@H]2O)[C@@H](CO)O[C@H]1OC[C@H]1OC(O)[C@@H](O)[C@@H](O)[C@@H]1O

> <INCHI>
InChI=1S/C20H35NO16/c1-5(24)21-9-12(27)17(37-20-16(31)14(29)10(25)6(2-22)35-20)7(3-23)36-19(9)33-4-8-11(26)13(28)15(30)18(32)34-8/h6-20,22-23,25-32H,2-4H2,1H3,(H,21,24)/t6-,7-,8-,9-,10+,11-,12-,13+,14+,15+,16-,17-,18?,19-,20+/m1/s1

> <INCHIKEY>
VZIJAGXHAXHZJU-JTSGWPACSA-N

> <REAXYS_REGISTRY_NUMBER>
5323474

> <KEGG_GLYCAN_ACCESSION>
G00387

> <PUBMED_CITATION>
6194884

$$$$

Marvin  05231113592D          

 22 21  0  0  1  0            999 V2000
   10.3130   -7.3959    0.0000 C   0  0  0  0  0  0  0  0  0  0  0  0
    9.5985   -7.8084    0.0000 C   0  0  0  0  0  0  0  0  0  0  0  0
   16.7431   -7.8084    0.0000 C   0  0  1  0  0  0  0  0  0  0  0  0
   15.3142   -7.8084    0.0000 S   0  0  0  0  0  0  0  0  0  0  0  0
   14.5997   -7.3959    0.0000 C   0  0  0  0  0  0  0  0  0  0  0  0
   18.1721   -7.8084    0.0000 O   0  0  0  0  0  0  0  0  0  0  0  0
   13.8852   -7.8084    0.0000 C   0  0  0  0  0  0  0  0  0  0  0  0
   13.1708   -7.3959    0.0000 C   0  0  0  0  0  0  0  0  0  0  0  0
   12.4564   -7.8084    0.0000 C   0  0  0  0  0  0  0  0  0  0  0  0
   11.7418   -7.3959    0.0000 C   0  0  0  0  0  0  0  0  0  0  0  0
   11.0275   -7.8084    0.0000 C   0  0  0  0  0  0  0  0  0  0  0  0
    8.8840   -7.3959    0.0000 C   0  0  0  0  0  0  0  0  0  0  0  0
    8.1696   -7.8084    0.0000 C   0  0  0  0  0  0  0  0  0  0  0  0
    7.4552   -7.3959    0.0000 C   0  0  0  0  0  0  0  0  0  0  0  0
    6.7407   -7.8084    0.0000 C   0  0  0  0  0  0  0  0  0  0  0  0
   16.0287   -7.3959    0.0000 C   0  0  0  0  0  0  0  0  0  0  0  0
   17.4575   -7.3959    0.0000 C   0  0  0  0  0  0  0  0  0  0  0  0
   17.4575   -6.5710    0.0000 O   0  0  0  0  0  0  0  0  0  0  0  0
   13.1707   -6.5710    0.0000 C   0  0  0  0  0  0  0  0  0  0  0  0
   10.3130   -6.5708    0.0000 C   0  0  0  0  0  0  0  0  0  0  0  0
    7.4552   -6.5708    0.0000 C   0  0  0  0  0  0  0  0  0  0  0  0
   16.7431   -8.6334    0.0000 N   0  0  0  0  0  0  0  0  0  0  0  0
  1 20  1  0  0  0  0
  1  2  1  0  0  0  0
  4  5  1  0  0  0  0
  5  7  1  0  0  0  0
  7  8  2  0  0  0  0
  8 19  1  0  0  0  0
  8  9  1  0  0  0  0
  9 10  1  0  0  0  0
 11  1  2  0  0  0  0
 10 11  1  0  0  0  0
  2 12  1  0  0  0  0
 12 13  1  0  0  0  0
 13 14  2  0  0  0  0
 14 21  1  0  0  0  0
 14 15  1  0  0  0  0
 18 17  2  0  0  0  0
  3 17  1  0  0  0  0
  3 22  1  1  0  0  0
 16  3  1  0  0  0  0
  6 17  1  0  0  0  0
  4 16  1  0  0  0  0
M  END
> <ID>
CHEBI:62197

> <NAME>
S-[(2E,6E)-farnesyl]-L-cysteine

> <DEFINITION>
An S-farnesyl-L-cysteine where the C=C double bonds at the 2- and 6-positions both have (E)-configuration.

> <STAR>
3

> <SYNONYM>
trans-farnesyl-L-cysteine; trans,trans-farnesyl-L-cysteine; S-trans,trans-farnesylcysteine; S-farnesylcysteine; S-all-trans-farnesylcysteine; S-(trans,trans)-farnesyl-L-cysteine; S-(E,E)-farnesyl-L-cysteine; S-(2-trans,6-trans)-farnesyl-L-cysteine; 2-trans-6-trans-farnesylcysteine; (E,E)-farnesyl-L-cysteine; (2R)-2-amino-3-{[(2E,6E)-3,7,11-trimethyldodeca-2,6,10-trien-1-yl]sulfanyl}propanoic acid; (2E,6E)-farnesyl-L-cysteine

> <IUPAC_NAME>
S-[(2E,6E)-3,7,11-trimethyldodeca-2,6,10-trien-1-yl]-L-cysteine

> <FORMULA>
C18H31NO2S

> <MASS>
325.50900

> <MONOISOTOPIC_MASS>
325.20755

> <CHARGE>
0

> <SMILES>
CC(C)=CCC\C(C)=C\CC\C(C)=C\CSC[C@H](N)C(O)=O

> <INCHI>
InChI=1S/C18H31NO2S/c1-14(2)7-5-8-15(3)9-6-10-16(4)11-12-22-13-17(19)18(20)21/h7,9,11,17H,5-6,8,10,12-13,19H2,1-4H3,(H,20,21)/b15-9+,16-11+/t17-/m0/s1

> <INCHIKEY>
SYSLNQMKLROGCL-BCYUYYMPSA-N

> <CAS_REGISTRY_NUMBER>
68000-92-0

> <REAXYS_REGISTRY_NUMBER>
2656458

> <CHEMIDPLUS>
68000-92-0

> <METACYC_ACCESSION>
CPD-12581

> <PUBMED_CITATION>
17425716; 28600633

$$$$

Marvin  06011111432D          

 36 38  0  0  1  0            999 V2000
   10.2445   -7.4820    0.0000 C   0  0  1  0  0  0  0  0  0  0  0  0
   10.9589   -7.8945    0.0000 C   0  0  2  0  0  0  0  0  0  0  0  0
    9.5300   -7.8945    0.0000 O   0  0  0  0  0  0  0  0  0  0  0  0
   10.9589   -8.7195    0.0000 C   0  0  1  0  0  0  0  0  0  0  0  0
    9.5300   -8.7195    0.0000 C   0  0  2  0  0  0  0  0  0  0  0  0
   10.2445   -9.1320    0.0000 C   0  0  1  0  0  0  0  0  0  0  0  0
   10.2444   -6.6570    0.0000 O   0  0  0  0  0  0  0  0  0  0  0  0
   11.6734   -7.4820    0.0000 O   0  0  0  0  0  0  0  0  0  0  0  0
   11.6734   -9.1320    0.0000 O   0  0  0  0  0  0  0  0  0  0  0  0
   10.2445   -9.9570    0.0000 O   0  0  0  0  0  0  0  0  0  0  0  0
    8.8156   -9.1320    0.0000 C   0  0  0  0  0  0  0  0  0  0  0  0
    9.5300   -5.4194    0.0000 C   0  0  1  0  0  0  0  0  0  0  0  0
    9.5300   -6.2445    0.0000 C   0  0  1  0  0  0  0  0  0  0  0  0
    8.8154   -5.0069    0.0000 O   0  0  0  0  0  0  0  0  0  0  0  0
    8.8154   -6.6570    0.0000 C   0  0  2  0  0  0  0  0  0  0  0  0
    8.1010   -5.4194    0.0000 C   0  0  1  0  0  0  0  0  0  0  0  0
    8.1010   -6.2445    0.0000 C   0  0  2  0  0  0  0  0  0  0  0  0
    8.8154   -7.4820    0.0000 O   0  0  0  0  0  0  0  0  0  0  0  0
    7.3866   -6.6570    0.0000 O   0  0  0  0  0  0  0  0  0  0  0  0
    7.3866   -5.0069    0.0000 C   0  0  0  0  0  0  0  0  0  0  0  0
    6.6721   -5.4194    0.0000 O   0  0  0  0  0  0  0  0  0  0  0  0
   10.2444   -5.0069    0.0000 O   0  0  0  0  0  0  0  0  0  0  0  0
   10.9589   -2.9445    0.0000 C   0  0  0  0  0  0  0  0  0  0  0  0
   10.9589   -3.7695    0.0000 C   0  0  1  0  0  0  0  0  0  0  0  0
   10.2444   -2.5320    0.0000 O   0  0  0  0  0  0  0  0  0  0  0  0
   10.2444   -4.1820    0.0000 C   0  0  2  0  0  0  0  0  0  0  0  0
    9.5299   -2.9445    0.0000 C   0  0  1  0  0  0  0  0  0  0  0  0
    9.5299   -3.7695    0.0000 C   0  0  1  0  0  0  0  0  0  0  0  0
   11.6734   -2.5320    0.0000 O   0  0  0  0  0  0  0  0  0  0  0  0
   11.6734   -4.1820    0.0000 N   0  0  0  0  0  0  0  0  0  0  0  0
    8.8156   -4.1820    0.0000 O   0  0  0  0  0  0  0  0  0  0  0  0
    8.8156   -2.5320    0.0000 C   0  0  0  0  0  0  0  0  0  0  0  0
    8.1011   -2.9445    0.0000 O   0  0  0  0  0  0  0  0  0  0  0  0
   11.6758   -5.0094    0.0000 C   0  0  0  0  0  0  0  0  0  0  0  0
   12.3914   -5.4269    0.0000 C   0  0  0  0  0  0  0  0  0  0  0  0
   10.9601   -5.4269    0.0000 O   0  0  0  0  0  0  0  0  0  0  0  0
  1  2  1  0  0  0  0
  1  3  1  0  0  0  0
  2  4  1  0  0  0  0
  3  5  1  0  0  0  0
  4  6  1  0  0  0  0
  5  6  1  0  0  0  0
  1  7  1  1  0  0  0
  2  8  1  1  0  0  0
  4  9  1  6  0  0  0
  6 10  1  6  0  0  0
  5 11  1  6  0  0  0
 12 13  1  0  0  0  0
 12 14  1  0  0  0  0
 13 15  1  0  0  0  0
 14 16  1  0  0  0  0
 15 17  1  0  0  0  0
 16 17  1  0  0  0  0
 13  7  1  6  0  0  0
 15 18  1  1  0  0  0
 17 19  1  1  0  0  0
 16 20  1  1  0  0  0
 21 20  1  0  0  0  0
 12 22  1  1  0  0  0
 23 24  1  0  0  0  0
 23 25  1  0  0  0  0
 24 26  1  0  0  0  0
 25 27  1  0  0  0  0
 26 28  1  0  0  0  0
 27 28  1  0  0  0  0
 23 29  1  0  0  0  0
 24 30  1  6  0  0  0
 26 22  1  1  0  0  0
 28 31  1  6  0  0  0
 27 32  1  1  0  0  0
 33 32  1  0  0  0  0
 30 34  1  0  0  0  0
 34 35  1  0  0  0  0
 34 36  2  0  0  0  0
M  END
> <ID>
CHEBI:62259

> <NAME>
alpha-L-Fucp-(1->2)-beta-D-Galp-(1->3)-D-GlcpNAc

> <DEFINITION>
An amino trisaccharide consisting of α-L-fucose, β-D-galactose and N-acetyl-D-glucosamine residues joined by sequential (1→2)- and (1→3)-linkages.

> <STAR>
3

> <SYNONYM>
Lewis H-1 antigen; Fucalpha1-2Galbeta1-3GlcNAc; Fucalpha(1-2)Galbeta(1-3)GlcNAc; Anti H type 1 trisaccharide; alpha-L-fucosyl-(1->2)-beta-D-galactosyl-(1->3)-N-acetyl-D-glucosamine; alpha-L-fucopyranosyl-(1->2)-beta-D-galactopyranosyl-(1->3)-2-(acetylamino)-2-deoxy-D-glucopyranose; alpha-L-Fuc-(1->2)-beta-D-Gal-(1->3)-D-GlcNAc; alpha-L-Fuc-(1->2)-beta-D-Gal-(1->3)-D-GlcNAc; 6-deoxy-alpha-L-galactopyranosyl-(1->2)-beta-D-galactopyranosyl-(1->3)-2-acetamido-2-deoxy-D-glucopyranose; (Gal)1 (GlcNAc)1 (LFuc)1

> <IUPAC_NAME>
alpha-L-fucopyranosyl-(1->2)-beta-D-galactopyranosyl-(1->3)-2-acetamido-2-deoxy-D-glucopyranose

> <FORMULA>
C20H35NO15

> <MASS>
529.48960

> <MONOISOTOPIC_MASS>
529.20067

> <CHARGE>
0

> <SMILES>
C[C@@H]1O[C@@H](O[C@@H]2[C@@H](O)[C@@H](O)[C@@H](CO)O[C@H]2O[C@H]2[C@H](O)[C@@H](CO)OC(O)[C@@H]2NC(C)=O)[C@@H](O)[C@H](O)[C@@H]1O

> <INCHI>
InChI=1S/C20H35NO15/c1-5-10(25)13(28)15(30)19(32-5)36-17-14(29)11(26)7(3-22)34-20(17)35-16-9(21-6(2)24)18(31)33-8(4-23)12(16)27/h5,7-20,22-23,25-31H,3-4H2,1-2H3,(H,21,24)/t5-,7+,8+,9+,10+,11-,12+,13+,14-,15-,16+,17+,18?,19-,20-/m0/s1

> <INCHIKEY>
MGSDFCKWGHNUSM-GJGMMKECSA-N

> <REAXYS_REGISTRY_NUMBER>
1414311

> <KEGG_GLYCAN_ACCESSION>
G00285

> <PUBMED_CITATION>
16133831; 6083446; 7696864

$$$$

Marvin  06011111122D          

 51 54  0  0  1  0            999 V2000
    8.6546  -12.6384    0.0000 O   0  0  0  0  0  0  0  0  0  0  0  0
    9.3691  -10.5759    0.0000 C   0  0  2  0  0  0  0  0  0  0  0  0
    9.3691  -11.4009    0.0000 C   0  0  1  0  0  0  0  0  0  0  0  0
    8.6546  -10.1634    0.0000 O   0  0  0  0  0  0  0  0  0  0  0  0
    8.6546  -11.8134    0.0000 C   0  0  2  0  0  0  0  0  0  0  0  0
    7.9401  -10.5759    0.0000 C   0  0  1  0  0  0  0  0  0  0  0  0
    7.9401  -11.4009    0.0000 C   0  0  2  0  0  0  0  0  0  0  0  0
   10.0835  -10.1634    0.0000 O   0  0  0  0  0  0  0  0  0  0  0  0
   10.0835  -11.8134    0.0000 N   0  0  0  0  0  0  0  0  0  0  0  0
    7.2256  -11.8134    0.0000 O   0  0  0  0  0  0  0  0  0  0  0  0
    7.2256  -10.1634    0.0000 C   0  0  0  0  0  0  0  0  0  0  0  0
    6.5112  -10.5759    0.0000 O   0  0  0  0  0  0  0  0  0  0  0  0
   10.7980   -8.9259    0.0000 C   0  0  2  0  0  0  0  0  0  0  0  0
   10.0835   -9.3384    0.0000 C   0  0  2  0  0  0  0  0  0  0  0  0
   10.7980   -8.1008    0.0000 O   0  0  0  0  0  0  0  0  0  0  0  0
    9.3691   -8.9259    0.0000 C   0  0  2  0  0  0  0  0  0  0  0  0
   10.0835   -7.6884    0.0000 C   0  0  1  0  0  0  0  0  0  0  0  0
    9.3691   -8.1009    0.0000 C   0  0  1  0  0  0  0  0  0  0  0  0
   11.5125   -9.3384    0.0000 O   0  0  0  0  0  0  0  0  0  0  0  0
    8.6546   -9.3384    0.0000 O   0  0  0  0  0  0  0  0  0  0  0  0
    8.6546   -7.6884    0.0000 O   0  0  0  0  0  0  0  0  0  0  0  0
   10.0835   -6.8634    0.0000 C   0  0  1  0  0  0  0  0  0  0  0  0
    9.3690   -6.4509    0.0000 C   0  0  0  0  0  0  0  0  0  0  0  0
   10.9010   -7.2157    0.0000 H   0  0  0  0  0  0  0  0  0  0  0  0
   10.7980   -6.4509    0.0000 O   0  0  0  0  0  0  0  0  0  0  0  0
    9.3690   -5.6259    0.0000 O   0  0  0  0  0  0  0  0  0  0  0  0
   10.0835  -12.6384    0.0000 C   0  0  0  0  0  0  0  0  0  0  0  0
   10.7980  -13.0509    0.0000 O   0  0  0  0  0  0  0  0  0  0  0  0
    9.3691  -13.0509    0.0000 C   0  0  0  0  0  0  0  0  0  0  0  0
   14.3704   -9.3384    0.0000 C   0  0  2  0  0  0  0  0  0  0  0  0
   14.3704  -10.1634    0.0000 C   0  0  1  0  0  0  0  0  0  0  0  0
   13.6559   -8.9259    0.0000 O   0  0  0  0  0  0  0  0  0  0  0  0
   13.6559  -10.5759    0.0000 C   0  0  2  0  0  0  0  0  0  0  0  0
   12.9415   -9.3384    0.0000 C   0  0  1  0  0  0  0  0  0  0  0  0
   12.9415  -10.1634    0.0000 C   0  0  1  0  0  0  0  0  0  0  0  0
   15.0849   -8.9258    0.0000 O   0  0  0  0  0  0  0  0  0  0  0  0
   15.0849  -10.5759    0.0000 N   0  0  0  0  0  0  0  0  0  0  0  0
   13.6559  -11.4009    0.0000 O   0  0  0  0  0  0  0  0  0  0  0  0
   12.2270  -10.5759    0.0000 O   0  0  0  0  0  0  0  0  0  0  0  0
   12.2270   -8.9259    0.0000 C   0  0  0  0  0  0  0  0  0  0  0  0
    6.5112  -12.2259    0.0000 C   0  0  2  0  0  0  0  0  0  0  0  0
    6.5112  -13.0509    0.0000 C   0  0  1  0  0  0  0  0  0  0  0  0
    5.7966  -11.8134    0.0000 O   0  0  0  0  0  0  0  0  0  0  0  0
    5.7966  -13.4634    0.0000 C   0  0  2  0  0  0  0  0  0  0  0  0
    5.0822  -12.2259    0.0000 C   0  0  1  0  0  0  0  0  0  0  0  0
    5.0822  -13.0509    0.0000 C   0  0  1  0  0  0  0  0  0  0  0  0
    7.2256  -13.4634    0.0000 O   0  0  0  0  0  0  0  0  0  0  0  0
    5.7966  -14.2884    0.0000 O   0  0  0  0  0  0  0  0  0  0  0  0
    4.3677  -13.4634    0.0000 O   0  0  0  0  0  0  0  0  0  0  0  0
    4.3677  -11.8134    0.0000 C   0  0  0  0  0  0  0  0  0  0  0  0
    3.6533  -12.2259    0.0000 O   0  0  0  0  0  0  0  0  0  0  0  0
  2  3  1  0  0  0  0
  2  4  1  0  0  0  0
  3  5  1  0  0  0  0
  4  6  1  0  0  0  0
  5  7  1  0  0  0  0
  6  7  1  0  0  0  0
  2  8  1  6  0  0  0
  3  9  1  6  0  0  0
  5  1  1  1  0  0  0
  7 10  1  1  0  0  0
  6 11  1  1  0  0  0
 12 11  1  0  0  0  0
 13 14  1  0  0  0  0
 13 15  1  0  0  0  0
 14 16  1  0  0  0  0
 15 17  1  0  0  0  0
 16 18  1  0  0  0  0
 17 18  1  0  0  0  0
 13 19  1  6  0  0  0
 14  8  1  1  0  0  0
 16 20  1  1  0  0  0
 18 21  1  6  0  0  0
 17 22  1  0  0  0  0
 23 22  1  0  0  0  0
 17 24  1  6  0  0  0
 22 25  1  1  0  0  0
 23 26  1  0  0  0  0
 28 27  2  0  0  0  0
 29 27  1  0  0  0  0
  9 27  1  0  0  0  0
 30 31  1  0  0  0  0
 30 32  1  0  0  0  0
 31 33  1  0  0  0  0
 32 34  1  0  0  0  0
 33 35  1  0  0  0  0
 34 35  1  0  0  0  0
 30 36  1  6  0  0  0
 31 37  1  6  0  0  0
 33 38  1  1  0  0  0
 35 39  1  6  0  0  0
 34 40  1  1  0  0  0
 19 40  1  0  0  0  0
 41 42  1  0  0  0  0
 41 43  1  0  0  0  0
 42 44  1  0  0  0  0
 43 45  1  0  0  0  0
 44 46  1  0  0  0  0
 45 46  1  0  0  0  0
 41 10  1  6  0  0  0
 42 47  1  6  0  0  0
 44 48  1  1  0  0  0
 46 49  1  6  0  0  0
 45 50  1  1  0  0  0
 51 50  1  0  0  0  0
M  END
> <ID>
CHEBI:62260

> <NAME>
alpha-D-Glcp-(1->4)-alpha-D-GalpNAc-(1->2)-alpha-DD-Hepp-(1->6)-alpha-D-GlcpN

> <DEFINITION>
A linear amino tetrasaccharide comprised of α-glucose, N-acetyl-α-glucosamine, α-glycero-α-D-manno-heptose and α-glucosamine residues linked (1→4), (1→2) and (1→6) respectively.

> <STAR>
3

> <SYNONYM>
alpha-Glc-(1->4)-alpha-GalNAc-(1->2)-alpha-ddHep-(1->6)-alpha-GlcN; alpha-D-glucosyl-(1->4)-N-acetyl-alpha-D-galactosaminyl-(1->2)-D-glycero-alpha-D-manno-heptosyl-(1->6)-alpha-D-glucosamine

> <IUPAC_NAME>
alpha-D-glucopyranosyl-(1->4)-2-acetamido-2-deoxy-alpha-D-galactopyranosyl-(1->2)-D-glycero-alpha-D-manno-heptopyranosyl-(1->6)-2-amino-2-deoxy-alpha-D-glucopyranose

> <FORMULA>
C27H48N2O21

> <MASS>
736.67080

> <MONOISOTOPIC_MASS>
736.27496

> <CHARGE>
0

> <SMILES>
[H][C@@]1(O[C@H](OC[C@H]2O[C@H](O)[C@H](N)[C@@H](O)[C@@H]2O)[C@@H](O[C@H]2O[C@H](CO)[C@H](O[C@H]3O[C@H](CO)[C@@H](O)[C@H](O)[C@H]3O)[C@H](O)[C@H]2NC(C)=O)[C@@H](O)[C@@H]1O)[C@H](O)CO

> <INCHI>
InChI=1S/C27H48N2O21/c1-6(33)29-12-16(38)22(49-26-20(42)17(39)13(35)8(3-31)46-26)9(4-32)47-25(12)50-23-19(41)18(40)21(7(34)2-30)48-27(23)44-5-10-14(36)15(37)11(28)24(43)45-10/h7-27,30-32,34-43H,2-5,28H2,1H3,(H,29,33)/t7-,8-,9-,10-,11-,12-,13-,14-,15-,16-,17+,18+,19+,20-,21-,22+,23+,24+,25-,26-,27+/m1/s1

> <INCHIKEY>
AQRWJNIMKMVVAR-LYRVSOKJSA-N

> <PUBMED_CITATION>
21060898

$$$$

Marvin  06021111242D          

 23 23  0  0  1  0            999 V2000
   11.3337   -3.7422    0.0000 O   0  0  0  0  0  0  0  0  0  0  0  0
   10.6191   -4.1547    0.0000 C   0  0  2  0  0  0  0  0  0  0  0  0
   10.6191   -4.9797    0.0000 C   0  0  1  0  0  0  0  0  0  0  0  0
   11.3337   -5.3922    0.0000 C   0  0  2  0  0  0  0  0  0  0  0  0
   12.0482   -4.9797    0.0000 C   0  0  0  0  0  0  0  0  0  0  0  0
   12.7627   -3.7423    0.0000 C   0  0  0  0  0  0  0  0  0  0  0  0
   11.3336   -6.2172    0.0000 O   0  0  0  0  0  0  0  0  0  0  0  0
   13.4770   -4.1548    0.0000 O   0  0  0  0  0  0  0  0  0  0  0  0
   12.7627   -2.9173    0.0000 O   0  0  0  0  0  0  0  0  0  0  0  0
    9.9047   -3.7421    0.0000 C   0  0  1  0  0  0  0  0  0  0  0  0
    9.1902   -4.1546    0.0000 C   0  0  1  0  0  0  0  0  0  0  0  0
    9.9048   -2.9172    0.0000 O   0  0  0  0  0  0  0  0  0  0  0  0
    8.4758   -3.7421    0.0000 C   0  0  0  0  0  0  0  0  0  0  0  0
    9.1902   -4.9797    0.0000 O   0  0  0  0  0  0  0  0  0  0  0  0
    7.7613   -4.1545    0.0000 O   0  0  0  0  0  0  0  0  0  0  0  0
   10.6192   -3.3297    0.0000 H   0  0  0  0  0  0  0  0  0  0  0  0
   12.0482   -4.1547    0.0000 C   0  0  2  0  0  0  0  0  0  0  0  0
   12.0482   -3.3297    0.0000 O   0  0  0  0  0  0  0  0  0  0  0  0
    9.9047   -5.3922    0.0000 N   0  0  0  0  0  0  0  0  0  0  0  0
   10.6192   -6.6297    0.0000 C   0  0  0  0  0  0  0  0  0  0  0  0
    9.9047   -6.2172    0.0000 C   0  0  0  0  0  0  0  0  0  0  0  0
    9.1902   -6.6297    0.0000 O   0  0  0  0  0  0  0  0  0  0  0  0
   10.6192   -7.4548    0.0000 O   0  0  0  0  0  0  0  0  0  0  0  0
  2  1  1  0  0  0  0
  2 10  1  0  0  0  0
  2 16  1  1  0  0  0
  2  3  1  0  0  0  0
  3 19  1  1  0  0  0
  3  4  1  0  0  0  0
  4  7  1  6  0  0  0
  4  5  1  0  0  0  0
  1 17  1  0  0  0  0
 17  5  1  0  0  0  0
 17  6  1  0  0  0  0
  6  8  1  0  0  0  0
  6  9  2  0  0  0  0
 10 11  1  0  0  0  0
 10 12  1  1  0  0  0
 11 13  1  0  0  0  0
 11 14  1  6  0  0  0
 13 15  1  0  0  0  0
 17 18  1  6  0  0  0
 19 21  1  0  0  0  0
 21 20  1  0  0  0  0
 21 22  2  0  0  0  0
 20 23  1  0  0  0  0
M  END
> <ID>
CHEBI:62269

> <NAME>
N-glycoloyl-alpha-neuraminic acid

> <DEFINITION>
An N-acylneuraminic acid in which the acyl substituent on nitrogen is glycoloyl and which has α-configuration at the anomeric centre.

> <STAR>
3

> <SYNONYM>
Neu5Gcalpha; Neu5Gca

> <IUPAC_NAME>
3,5-dideoxy-5-(glycoloylamino)-D-glycero-alpha-D-galacto-non-2-ulopyranosonic acid

> <FORMULA>
C11H19NO10

> <MASS>
325.26930

> <MONOISOTOPIC_MASS>
325.10090

> <CHARGE>
0

> <SMILES>
[H][C@]1(O[C@](O)(C[C@H](O)[C@H]1NC(=O)CO)C(O)=O)[C@H](O)[C@H](O)CO

> <INCHI>
InChI=1S/C11H19NO10/c13-2-5(16)8(18)9-7(12-6(17)3-14)4(15)1-11(21,22-9)10(19)20/h4-5,7-9,13-16,18,21H,1-3H2,(H,12,17)(H,19,20)/t4-,5+,7+,8+,9+,11+/m0/s1

> <INCHIKEY>
FDJKUWYYUZCUJX-VTERZIIISA-N

> <PUBMED_CITATION>
18669916; 19443021; 21496117

$$$$

Ketcher 02121611372D 1   1.00000     0.00000     0

 45 47  0     1  0            999 V2000
    7.9276  -20.0749    0.0000 O   0  0  0  0  0  0  0  0  0  0  0  0
    7.0582  -20.5768    0.0000 C   0  0  0  0  0  0  0  0  0  0  0  0
    7.0582  -21.5806    0.0000 C   0  0  0  0  0  0  0  0  0  0  0  0
    7.9276  -22.0825    0.0000 C   0  0  0  0  0  0  0  0  0  0  0  0
    8.7970  -21.5806    0.0000 C   0  0  0  0  0  0  0  0  0  0  0  0
    7.9275  -23.0863    0.0000 O   0  0  0  0  0  0  0  0  0  0  0  0
    6.1889  -20.0748    0.0000 C   0  0  0  0  0  0  0  0  0  0  0  0
    5.3196  -20.5767    0.0000 C   0  0  0  0  0  0  0  0  0  0  0  0
    6.1891  -19.0711    0.0000 O   0  0  0  0  0  0  0  0  0  0  0  0
    4.4504  -20.0748    0.0000 C   0  0  0  0  0  0  0  0  0  0  0  0
    5.3196  -21.5806    0.0000 O   0  0  0  0  0  0  0  0  0  0  0  0
    3.5809  -20.5766    0.0000 O   0  0  0  0  0  0  0  0  0  0  0  0
    7.0583  -19.5730    0.0000 H   0  0  0  0  0  0  0  0  0  0  0  0
    8.7970  -20.5768    0.0000 C   0  0  0  0  0  0  0  0  0  0  0  0
    6.1889  -22.0825    0.0000 N   0  0  0  0  0  0  0  0  0  0  0  0
    7.0583  -23.5882    0.0000 C   0  0  0  0  0  0  0  0  0  0  0  0
    6.1889  -23.0863    0.0000 C   0  0  0  0  0  0  0  0  0  0  0  0
    5.3196  -23.5882    0.0000 O   0  0  0  0  0  0  0  0  0  0  0  0
    7.0583  -24.5921    0.0000 O   0  0  0  0  0  0  0  0  0  0  0  0
    9.7113  -19.8459    0.0000 O   0  0  0  0  0  0  0  0  0  0  0  0
    9.5080  -21.0844    0.0000 C   0  0  0  0  0  0  0  0  0  0  0  0
   10.6032  -20.8209    0.0000 O   0  0  0  0  0  0  0  0  0  0  0  0
    9.5110  -22.0976    0.0000 O   0  0  0  0  0  0  0  0  0  0  0  0
    9.7448  -18.8429    0.0000 C   0  0  0  0  0  0  0  0  0  0  0  0
   10.6142  -18.3746    0.0000 C   0  0  0  0  0  0  0  0  0  0  0  0
    8.8752  -18.3412    0.0000 C   0  0  0  0  0  0  0  0  0  0  0  0
   10.6142  -17.4048    0.0000 C   0  0  0  0  0  0  0  0  0  0  0  0
   11.3165  -18.7425    0.0000 O   0  0  0  0  0  0  0  0  0  0  0  0
    8.8752  -17.3379    0.0000 C   0  0  0  0  0  0  0  0  0  0  0  0
    7.9724  -18.8093    0.0000 O   0  0  0  0  0  0  0  0  0  0  0  0
   11.4837  -16.9032    0.0000 O   0  0  0  0  0  0  0  0  0  0  0  0
    9.7782  -16.8699    0.0000 O   0  0  0  0  0  0  0  0  0  0  0  0
    8.0392  -16.8363    0.0000 C   0  0  0  0  0  0  0  0  0  0  0  0
   12.3532  -16.4350    0.0000 C   0  0  0  0  0  0  0  0  0  0  0  0
   12.3532  -15.4318    0.0000 C   0  0  0  0  0  0  0  0  0  0  0  0
   13.1892  -16.9701    0.0000 C   0  0  0  0  0  0  0  0  0  0  0  0
   13.1892  -14.9636    0.0000 O   0  0  0  0  0  0  0  0  0  0  0  0
   11.4837  -14.8967    0.0000 C   0  0  0  0  0  0  0  0  0  0  0  0
   14.0588  -16.4685    0.0000 C   0  0  0  0  0  0  0  0  0  0  0  0
   13.1558  -17.9398    0.0000 O   0  0  0  0  0  0  0  0  0  0  0  0
   14.0588  -15.4653    0.0000 C   0  0  0  0  0  0  0  0  0  0  0  0
   10.6477  -15.4318    0.0000 O   0  0  0  0  0  0  0  0  0  0  0  0
   14.9281  -17.0036    0.0000 O   0  0  0  0  0  0  0  0  0  0  0  0
   14.9617  -14.9970    0.0000 O   0  0  0  0  0  0  0  0  0  0  0  0
    8.0392  -15.8331    0.0000 O   0  0  0  0  0  0  0  0  0  0  0  0
  2  1  1  0     0  0
  2  7  1  0     0  0
  2 13  1  1     0  0
  2  3  1  0     0  0
  3 15  1  1     0  0
  3  4  1  0     0  0
  4  6  1  6     0  0
  4  5  1  0     0  0
  1 14  1  0     0  0
 14  5  1  0     0  0
  7  8  1  0     0  0
  7  9  1  1     0  0
  8 10  1  0     0  0
  8 11  1  6     0  0
 10 12  1  0     0  0
 15 17  1  0     0  0
 17 16  1  0     0  0
 17 18  2  0     0  0
 16 19  1  0     0  0
 14 20  1  6     0  0
 22 21  2  0     0  0
 23 21  1  0     0  0
 14 21  1  1     0  0
 24 20  1  1     0  0
 24 25  1  0     0  0
 24 26  1  0     0  0
 25 27  1  0     0  0
 25 28  1  6     0  0
 26 29  1  0     0  0
 26 30  1  1     0  0
 27 31  1  1     0  0
 27 32  1  0     0  0
 29 33  1  1     0  0
 34 31  1  6     0  0
 34 35  1  0     0  0
 34 36  1  0     0  0
 35 37  1  0     0  0
 35 38  1  1     0  0
 36 39  1  0     0  0
 36 40  1  1     0  0
 37 41  1  0     0  0
 38 42  1  0     0  0
 39 43  1  6     0  0
 41 44  1  0     0  0
 29 32  1  0     0  0
 39 41  1  0     0  0
 33 45  1  0     0  0
M  END
> <ID>
CHEBI:62273

> <NAME>
alpha-Neup5Gc-(2->3)-beta-D-Galp-(1->4)-D-Glcp

> <DEFINITION>
An amino trisaccharide consisting of an N-glycoloylneuraminosyl residue linked α(2→3) to a lactose moiety.

> <STAR>
3

> <SYNONYM>
NeuGc2-3Lac; Neu5Ac-Gc2-3Lac; Gc2-3Lac; alpha-Neu5Gc-(2->3)-beta-D-Gal-(1->4)-D-Glc; alpha-N-glycoloylneuraminosyl-(2->3)-beta-D-galactosyl-(1->4)-D-glucose

> <IUPAC_NAME>
3,5-dideoxy-5-(glycoloylamino)-D-glycero-alpha-D-galacto-non-2-ulopyranonosyl-(2->3)-beta-D-galactopyranosyl-(1->4)-D-glucopyranose

> <FORMULA>
C23H39NO20

> <MASS>
649.551

> <MONOISOTOPIC_MASS>
649.20654

> <CHARGE>
0

> <SMILES>
O1[C@]([C@@H]([C@@H](CO)O)O)([H])[C@H](NC(CO)=O)[C@@H](O)C[C@]1(O[C@@H]2[C@H]([C@H](O[C@@H]3[C@H](OC(O)[C@@H]([C@H]3O)O)CO)O[C@@H]([C@@H]2O)CO)O)C(=O)O

> <INCHI>
InChI=1S/C23H39NO20/c25-2-7(30)12(32)18-11(24-10(31)5-28)6(29)1-23(43-18,22(38)39)44-19-13(33)8(3-26)41-21(16(19)36)42-17-9(4-27)40-20(37)15(35)14(17)34/h6-9,11-21,25-30,32-37H,1-5H2,(H,24,31)(H,38,39)/t6-,7+,8+,9+,11+,12+,13-,14+,15+,16+,17+,18+,19-,20?,21-,23-/m0/s1

> <INCHIKEY>
FGYWXADXUBZTCC-HYWRFEJQSA-N

> <PUBMED_CITATION>
26630345

$$$$

Marvin  06021112282D          

 45 47  0  0  1  0            999 V2000
    5.4023  -25.6936    0.0000 O   0  0  0  0  0  0  0  0  0  0  0  0
    4.6877  -26.1061    0.0000 C   0  0  2  0  0  0  0  0  0  0  0  0
    4.6877  -26.9311    0.0000 C   0  0  1  0  0  0  0  0  0  0  0  0
    5.4023  -27.3436    0.0000 C   0  0  2  0  0  0  0  0  0  0  0  0
    6.1168  -26.9311    0.0000 C   0  0  0  0  0  0  0  0  0  0  0  0
    5.4022  -28.1686    0.0000 O   0  0  0  0  0  0  0  0  0  0  0  0
    3.9733  -25.6935    0.0000 C   0  0  1  0  0  0  0  0  0  0  0  0
    3.2588  -26.1060    0.0000 C   0  0  1  0  0  0  0  0  0  0  0  0
    3.9734  -24.8686    0.0000 O   0  0  0  0  0  0  0  0  0  0  0  0
    2.5444  -25.6935    0.0000 C   0  0  0  0  0  0  0  0  0  0  0  0
    3.2588  -26.9311    0.0000 O   0  0  0  0  0  0  0  0  0  0  0  0
    1.8299  -26.1059    0.0000 O   0  0  0  0  0  0  0  0  0  0  0  0
    4.6878  -25.2811    0.0000 H   0  0  0  0  0  0  0  0  0  0  0  0
    6.1168  -26.1061    0.0000 C   0  0  2  0  0  0  0  0  0  0  0  0
    3.9733  -27.3436    0.0000 N   0  0  0  0  0  0  0  0  0  0  0  0
    4.6878  -28.5811    0.0000 C   0  0  0  0  0  0  0  0  0  0  0  0
    3.9733  -28.1686    0.0000 C   0  0  0  0  0  0  0  0  0  0  0  0
    3.2588  -28.5811    0.0000 O   0  0  0  0  0  0  0  0  0  0  0  0
    4.6878  -29.4062    0.0000 O   0  0  0  0  0  0  0  0  0  0  0  0
    6.7013  -26.5233    0.0000 C   0  0  0  0  0  0  0  0  0  0  0  0
    7.6014  -26.3067    0.0000 O   0  0  0  0  0  0  0  0  0  0  0  0
    6.7037  -27.3559    0.0000 O   0  0  0  0  0  0  0  0  0  0  0  0
    7.0473  -25.3563    0.0000 O   0  0  0  0  0  0  0  0  0  0  0  0
    9.6913  -27.8413    0.0000 O   0  0  0  0  0  0  0  0  0  0  0  0
    9.7187  -27.0168    0.0000 C   0  0  2  0  0  0  0  0  0  0  0  0
   10.4333  -26.6320    0.0000 C   0  0  2  0  0  0  0  0  0  0  0  0
    9.0041  -26.6045    0.0000 C   0  0  2  0  0  0  0  0  0  0  0  0
   10.4333  -25.8349    0.0000 C   0  0  2  0  0  0  0  0  0  0  0  0
   11.0105  -26.9343    0.0000 O   0  0  0  0  0  0  0  0  0  0  0  0
    9.0041  -25.7799    0.0000 C   0  0  2  0  0  0  0  0  0  0  0  0
    8.2620  -26.9893    0.0000 O   0  0  0  0  0  0  0  0  0  0  0  0
   11.1479  -25.4226    0.0000 O   0  0  0  0  0  0  0  0  0  0  0  0
    9.7462  -25.3952    0.0000 O   0  0  0  0  0  0  0  0  0  0  0  0
    8.3170  -25.3676    0.0000 C   0  0  0  0  0  0  0  0  0  0  0  0
   11.8625  -25.0378    0.0000 C   0  0  2  0  0  0  0  0  0  0  0  0
   11.8625  -24.2133    0.0000 C   0  0  2  0  0  0  0  0  0  0  0  0
   12.5496  -25.4776    0.0000 C   0  0  1  0  0  0  0  0  0  0  0  0
   12.5496  -23.8285    0.0000 O   0  0  0  0  0  0  0  0  0  0  0  0
   11.1479  -23.7735    0.0000 C   0  0  0  0  0  0  0  0  0  0  0  0
   13.2643  -25.0653    0.0000 C   0  0  2  0  0  0  0  0  0  0  0  0
   12.5222  -26.2747    0.0000 O   0  0  0  0  0  0  0  0  0  0  0  0
   13.2643  -24.2408    0.0000 C   0  0  0  0  0  0  0  0  0  0  0  0
   10.4609  -24.2133    0.0000 O   0  0  0  0  0  0  0  0  0  0  0  0
   13.9789  -25.5051    0.0000 O   0  0  0  0  0  0  0  0  0  0  0  0
   14.0064  -23.8559    0.0000 O   0  0  0  0  0  0  0  0  0  0  0  0
  2  1  1  0  0  0  0
  2  7  1  0  0  0  0
  2 13  1  1  0  0  0
  2  3  1  0  0  0  0
  3 15  1  1  0  0  0
  3  4  1  0  0  0  0
  4  6  1  6  0  0  0
  4  5  1  0  0  0  0
  1 14  1  0  0  0  0
 14  5  1  0  0  0  0
  7  8  1  0  0  0  0
  7  9  1  1  0  0  0
  8 10  1  0  0  0  0
  8 11  1  6  0  0  0
 10 12  1  0  0  0  0
 15 17  1  0  0  0  0
 17 16  1  0  0  0  0
 17 18  2  0  0  0  0
 16 19  1  0  0  0  0
 21 20  2  0  0  0  0
 22 20  1  0  0  0  0
 14 20  1  1  0  0  0
 14 23  1  6  0  0  0
 25 24  1  1  0  0  0
 25 26  1  0  0  0  0
 25 27  1  0  0  0  0
 26 28  1  0  0  0  0
 26 29  1  6  0  0  0
 27 30  1  0  0  0  0
 27 31  1  1  0  0  0
 28 32  1  1  0  0  0
 28 33  1  0  0  0  0
 30 34  1  1  0  0  0
 35 32  1  6  0  0  0
 35 36  1  0  0  0  0
 35 37  1  0  0  0  0
 36 38  1  0  0  0  0
 36 39  1  1  0  0  0
 37 40  1  0  0  0  0
 37 41  1  1  0  0  0
 38 42  1  0  0  0  0
 39 43  1  0  0  0  0
 40 44  1  6  0  0  0
 42 45  1  0  0  0  0
 30 33  1  0  0  0  0
 40 42  1  0  0  0  0
 34 23  1  0  0  0  0
M  END
> <ID>
CHEBI:62274

> <NAME>
alpha-Neup5Gc-(2->6)-beta-D-Galp-(1->4)-D-Glcp

> <DEFINITION>
An amino trisaccharide consisting of an N-glycoloylneuraminosyl residue linked α(2→6) to a lactose moiety.

> <STAR>
3

> <SYNONYM>
alpha-Neu5Gc-(2->6)-beta-Gal-(1->4)-Glc; alpha-N-glycoloylneuraminyl-(2->6)-beta-D-galactosyl-(1->4)-D-glucose; alpha-N-glycoloylneuraminosyl-(2->6)-beta-D-galactosyl-(1->4)-D-glucose

> <IUPAC_NAME>
3,5-dideoxy-5-(glycoloylamino)-D-glycero-alpha-D-galacto-non-2-ulopyranonosyl-(2->6)-beta-D-galactopyranosyl-(1->4)-D-glucopyranose

> <FORMULA>
C23H39NO20

> <MASS>
649.55050

> <MONOISOTOPIC_MASS>
649.20654

> <CHARGE>
0

> <SMILES>
[H][C@]1(O[C@@](C[C@H](O)[C@H]1NC(=O)CO)(OC[C@H]1O[C@@H](O[C@H]2[C@H](O)[C@@H](O)C(O)O[C@@H]2CO)[C@H](O)[C@@H](O)[C@H]1O)C(O)=O)[C@H](O)[C@H](O)CO

> <INCHI>
InChI=1S/C23H39NO20/c25-2-7(29)12(31)19-11(24-10(30)4-27)6(28)1-23(44-19,22(38)39)40-5-9-13(32)14(33)17(36)21(42-9)43-18-8(3-26)41-20(37)16(35)15(18)34/h6-9,11-21,25-29,31-37H,1-5H2,(H,24,30)(H,38,39)/t6-,7+,8+,9+,11+,12+,13-,14-,15+,16+,17+,18+,19+,20?,21-,23+/m0/s1

> <INCHIKEY>
ZTJGCQSXAMNQNC-AXALLACPSA-N

> <PUBMED_CITATION>
18669916; 33

$$$$

Marvin  06021115412D          

 37 38  0  0  1  0            999 V2000
    6.1777  -34.0532    0.0000 O   0  0  0  0  0  0  0  0  0  0  0  0
    5.4631  -34.4657    0.0000 C   0  0  2  0  0  0  0  0  0  0  0  0
    5.4631  -35.2907    0.0000 C   0  0  1  0  0  0  0  0  0  0  0  0
    6.1777  -35.7032    0.0000 C   0  0  2  0  0  0  0  0  0  0  0  0
    6.8922  -35.2907    0.0000 C   0  0  0  0  0  0  0  0  0  0  0  0
    6.1776  -36.5282    0.0000 O   0  0  0  0  0  0  0  0  0  0  0  0
    4.7486  -34.0531    0.0000 C   0  0  1  0  0  0  0  0  0  0  0  0
    4.0342  -34.4656    0.0000 C   0  0  1  0  0  0  0  0  0  0  0  0
    4.7488  -33.2283    0.0000 O   0  0  0  0  0  0  0  0  0  0  0  0
    3.3198  -34.0531    0.0000 C   0  0  0  0  0  0  0  0  0  0  0  0
    4.0342  -35.2907    0.0000 O   0  0  0  0  0  0  0  0  0  0  0  0
    2.6052  -34.4655    0.0000 O   0  0  0  0  0  0  0  0  0  0  0  0
    5.4632  -33.6408    0.0000 H   0  0  0  0  0  0  0  0  0  0  0  0
    6.8922  -34.4657    0.0000 C   0  0  2  0  0  0  0  0  0  0  0  0
    4.7486  -35.7032    0.0000 N   0  0  0  0  0  0  0  0  0  0  0  0
    5.4632  -36.9407    0.0000 C   0  0  0  0  0  0  0  0  0  0  0  0
    4.7486  -36.5282    0.0000 C   0  0  0  0  0  0  0  0  0  0  0  0
    4.0342  -36.9407    0.0000 O   0  0  0  0  0  0  0  0  0  0  0  0
    5.4632  -37.7659    0.0000 O   0  0  0  0  0  0  0  0  0  0  0  0
    7.4766  -34.8829    0.0000 C   0  0  0  0  0  0  0  0  0  0  0  0
    8.3767  -34.6664    0.0000 O   0  0  0  0  0  0  0  0  0  0  0  0
    7.4791  -35.7156    0.0000 O   0  0  0  0  0  0  0  0  0  0  0  0
    7.8227  -33.7159    0.0000 O   0  0  0  0  0  0  0  0  0  0  0  0
   10.4667  -36.2010    0.0000 O   0  0  0  0  0  0  0  0  0  0  0  0
   10.4942  -35.3764    0.0000 C   0  0  2  0  0  0  0  0  0  0  0  0
   11.2087  -34.9917    0.0000 C   0  0  2  0  0  0  0  0  0  0  0  0
    9.7794  -34.9641    0.0000 C   0  0  2  0  0  0  0  0  0  0  0  0
   11.2087  -34.1945    0.0000 C   0  0  0  0  0  0  0  0  0  0  0  0
   11.7859  -35.2939    0.0000 N   0  0  0  0  0  0  0  0  0  0  0  0
    9.7794  -34.1396    0.0000 C   0  0  2  0  0  0  0  0  0  0  0  0
    9.0374  -35.3490    0.0000 O   0  0  0  0  0  0  0  0  0  0  0  0
   11.9233  -33.7823    0.0000 O   0  0  0  0  0  0  0  0  0  0  0  0
   10.5216  -33.7548    0.0000 O   0  0  0  0  0  0  0  0  0  0  0  0
    9.0924  -33.7272    0.0000 C   0  0  0  0  0  0  0  0  0  0  0  0
   11.8199  -36.1183    0.0000 C   0  0  0  0  0  0  0  0  0  0  0  0
   12.5507  -36.5010    0.0000 O   0  0  0  0  0  0  0  0  0  0  0  0
   11.1230  -36.5598    0.0000 C   0  0  0  0  0  0  0  0  0  0  0  0
  2  1  1  0  0  0  0
  2  7  1  0  0  0  0
  2 13  1  1  0  0  0
  2  3  1  0  0  0  0
  3 15  1  1  0  0  0
  3  4  1  0  0  0  0
  4  6  1  6  0  0  0
  4  5  1  0  0  0  0
  1 14  1  0  0  0  0
 14  5  1  0  0  0  0
  7  8  1  0  0  0  0
  7  9  1  1  0  0  0
  8 10  1  0  0  0  0
  8 11  1  6  0  0  0
 10 12  1  0  0  0  0
 15 17  1  0  0  0  0
 17 16  1  0  0  0  0
 17 18  2  0  0  0  0
 16 19  1  0  0  0  0
 21 20  2  0  0  0  0
 22 20  1  0  0  0  0
 14 20  1  1  0  0  0
 14 23  1  6  0  0  0
 25 24  1  1  0  0  0
 25 26  1  0  0  0  0
 25 27  1  0  0  0  0
 26 28  1  0  0  0  0
 26 29  1  6  0  0  0
 27 30  1  0  0  0  0
 27 31  1  1  0  0  0
 28 32  1  0  0  0  0
 28 33  1  0  0  0  0
 30 34  1  1  0  0  0
 30 33  1  0  0  0  0
 34 23  1  0  0  0  0
 36 35  2  0  0  0  0
 37 35  1  0  0  0  0
 29 35  1  0  0  0  0
M  END
> <ID>
CHEBI:62275

> <NAME>
alpha-Neup5Gc-(2->6)-D-GalpNAc

> <DEFINITION>
An amino disaccharide consisting of an N-glycoloylneuraminyl residue linked α(2→6) to an N-acetylglucosamine moiety.

> <STAR>
3

> <SYNONYM>
WURCS=2.0/2,2,1/[a2112h-1x_1-5_2*NCC/3=O][Aad21122h-2a_2-6_5*NCCO/3=O]/1-2/a6-b2; N-glycoloyl-alpha-neuraminyl-(2->6)-N-acetyl-D-galactosamine; alpha-Neu5Gc-(2->6)-GalNAc

> <IUPAC_NAME>
NeuGc(a2-6)GalNAc; 3,5-dideoxy-5-(glycoloylamino)-D-glycero-alpha-D-galacto-non-2-ulopyranonosyl-(2->6)-2-acetamido-2-deoxy-D-galactopyranose; 2-acetamido-2-deoxy-6-O-[3,5-dideoxy-5-(glycoloylamino)-D-glycero-alpha-D-galacto-non-2-ulopyranonosyl]-D-galactopyranose

> <FORMULA>
C19H32N2O15

> <MASS>
528.46180

> <MONOISOTOPIC_MASS>
528.18027

> <CHARGE>
0

> <SMILES>
[H][C@]1(O[C@@](C[C@H](O)[C@H]1NC(=O)CO)(OC[C@H]1OC(O)[C@H](NC(C)=O)[C@@H](O)[C@H]1O)C(O)=O)[C@H](O)[C@H](O)CO

> <INCHI>
InChI=1S/C19H32N2O15/c1-6(24)20-12-15(30)14(29)9(35-17(12)31)5-34-19(18(32)33)2-7(25)11(21-10(27)4-23)16(36-19)13(28)8(26)3-22/h7-9,11-17,22-23,25-26,28-31H,2-5H2,1H3,(H,20,24)(H,21,27)(H,32,33)/t7-,8+,9+,11+,12+,13+,14-,15+,16+,17?,19+/m0/s1

> <INCHIKEY>
IKLJMSMMTKMQHU-DWNYKBTESA-N

> <PUBMED_CITATION>
18669916

$$$$

Marvin  06021113532D          

 40 41  0  0  1  0            999 V2000
    6.7641  -40.9813    0.0000 O   0  0  0  0  0  0  0  0  0  0  0  0
    6.0495  -41.3938    0.0000 C   0  0  2  0  0  0  0  0  0  0  0  0
    6.0495  -42.2188    0.0000 C   0  0  1  0  0  0  0  0  0  0  0  0
    6.7641  -42.6313    0.0000 C   0  0  2  0  0  0  0  0  0  0  0  0
    7.4787  -42.2188    0.0000 C   0  0  0  0  0  0  0  0  0  0  0  0
    6.7640  -43.4563    0.0000 O   0  0  0  0  0  0  0  0  0  0  0  0
    5.3351  -40.9812    0.0000 C   0  0  1  0  0  0  0  0  0  0  0  0
    4.6206  -41.3937    0.0000 C   0  0  1  0  0  0  0  0  0  0  0  0
    5.3352  -40.1563    0.0000 O   0  0  0  0  0  0  0  0  0  0  0  0
    3.9062  -40.9812    0.0000 C   0  0  0  0  0  0  0  0  0  0  0  0
    4.6206  -42.2188    0.0000 O   0  0  0  0  0  0  0  0  0  0  0  0
    3.1917  -41.3936    0.0000 O   0  0  0  0  0  0  0  0  0  0  0  0
    6.0496  -40.5688    0.0000 H   0  0  0  0  0  0  0  0  0  0  0  0
    7.4787  -41.3938    0.0000 C   0  0  2  0  0  0  0  0  0  0  0  0
    5.3351  -42.6313    0.0000 N   0  0  0  0  0  0  0  0  0  0  0  0
    6.0496  -43.8688    0.0000 C   0  0  0  0  0  0  0  0  0  0  0  0
    5.3351  -43.4563    0.0000 C   0  0  0  0  0  0  0  0  0  0  0  0
    4.6206  -43.8688    0.0000 O   0  0  0  0  0  0  0  0  0  0  0  0
    6.0496  -44.6939    0.0000 O   0  0  0  0  0  0  0  0  0  0  0  0
    8.0631  -41.8110    0.0000 C   0  0  0  0  0  0  0  0  0  0  0  0
    8.9632  -41.5944    0.0000 O   0  0  0  0  0  0  0  0  0  0  0  0
    8.0655  -42.6437    0.0000 O   0  0  0  0  0  0  0  0  0  0  0  0
    8.4091  -40.6440    0.0000 O   0  0  0  0  0  0  0  0  0  0  0  0
   11.0531  -43.1290    0.0000 O   0  0  0  0  0  0  0  0  0  0  0  0
   11.0806  -42.3045    0.0000 C   0  0  2  0  0  0  0  0  0  0  0  0
   11.7952  -41.9197    0.0000 C   0  0  2  0  0  0  0  0  0  0  0  0
   10.3659  -41.8922    0.0000 C   0  0  2  0  0  0  0  0  0  0  0  0
   11.7952  -41.1226    0.0000 C   0  0  2  0  0  0  0  0  0  0  0  0
   12.3724  -42.2220    0.0000 N   0  0  0  0  0  0  0  0  0  0  0  0
   10.3659  -41.0676    0.0000 C   0  0  2  0  0  0  0  0  0  0  0  0
    9.6238  -42.2770    0.0000 O   0  0  0  0  0  0  0  0  0  0  0  0
   12.5098  -40.7103    0.0000 O   0  0  0  0  0  0  0  0  0  0  0  0
   11.1080  -40.6829    0.0000 O   0  0  0  0  0  0  0  0  0  0  0  0
    9.6788  -40.6553    0.0000 C   0  0  0  0  0  0  0  0  0  0  0  0
   12.4063  -43.0463    0.0000 C   0  0  0  0  0  0  0  0  0  0  0  0
   13.1372  -43.4291    0.0000 O   0  0  0  0  0  0  0  0  0  0  0  0
   11.7095  -43.4879    0.0000 C   0  0  0  0  0  0  0  0  0  0  0  0
    2.4773  -40.9810    0.0000 C   0  0  0  0  0  0  0  0  0  0  0  0
    1.7627  -41.3934    0.0000 O   0  0  0  0  0  0  0  0  0  0  0  0
    2.4773  -40.1560    0.0000 C   0  0  0  0  0  0  0  0  0  0  0  0
  2  1  1  0  0  0  0
  2  7  1  0  0  0  0
  2 13  1  1  0  0  0
  2  3  1  0  0  0  0
  3 15  1  1  0  0  0
  3  4  1  0  0  0  0
  4  6  1  6  0  0  0
  4  5  1  0  0  0  0
  1 14  1  0  0  0  0
 14  5  1  0  0  0  0
  7  8  1  0  0  0  0
  7  9  1  1  0  0  0
  8 10  1  0  0  0  0
  8 11  1  6  0  0  0
 10 12  1  0  0  0  0
 15 17  1  0  0  0  0
 17 16  1  0  0  0  0
 17 18  2  0  0  0  0
 16 19  1  0  0  0  0
 21 20  2  0  0  0  0
 22 20  1  0  0  0  0
 14 20  1  1  0  0  0
 14 23  1  6  0  0  0
 25 24  1  1  0  0  0
 25 26  1  0  0  0  0
 25 27  1  0  0  0  0
 26 28  1  0  0  0  0
 26 29  1  6  0  0  0
 27 30  1  0  0  0  0
 27 31  1  1  0  0  0
 28 32  1  1  0  0  0
 28 33  1  0  0  0  0
 30 34  1  1  0  0  0
 30 33  1  0  0  0  0
 34 23  1  0  0  0  0
 36 35  2  0  0  0  0
 37 35  1  0  0  0  0
 29 35  1  0  0  0  0
 39 38  2  0  0  0  0
 40 38  1  0  0  0  0
 12 38  1  0  0  0  0
M  END
> <ID>
CHEBI:62277

> <NAME>
9-O-acetyl-N-glycoloyl-alpha-neuraminosyl-(2->6)-N-acetyl-D-galactosamine

> <DEFINITION>
An amino disaccharide consisting of a 9-O-acetyl-N-glycoloylneuraminosyl residue linked α(2→6) to an N-acetylglucosamine moiety.

> <STAR>
3

> <SYNONYM>
alpha-Neu9Ac5Gc-(2->6)-GalNAc; 9-O-acetyl-N-glycoloyl-alpha-neuraminosyl-(2->6)-N-acetylglucosamine

> <IUPAC_NAME>
9-O-acetyl-3,5-dideoxy-5-(glycoloylamino)-D-glycero-alpha-D-galacto-non-2-ulopyranonosyl-(2->6)-2-acetamido-2-deoxy-D-galactopyranose; 2-acetamido-2-deoxy-6-O-[9-O-acetyl-3,5-dideoxy-5-(glycoloylamino)-D-glycero-alpha-D-galacto-non-2-ulopyranonosyl]-D-galactopyranose

> <FORMULA>
C21H34N2O16

> <MASS>
570.49850

> <MONOISOTOPIC_MASS>
570.19083

> <CHARGE>
0

> <SMILES>
[H][C@]1(O[C@@](C[C@H](O)[C@H]1NC(=O)CO)(OC[C@H]1O[C@@H](O)[C@H](NC(C)=O)[C@@H](O)[C@H]1O)C(O)=O)[C@H](O)[C@H](O)COC(C)=O

> <INCHI>
InChI=1S/C21H34N2O16/c1-7(25)22-14-17(32)16(31)11(38-19(14)33)6-37-21(20(34)35)3-9(27)13(23-12(29)4-24)18(39-21)15(30)10(28)5-36-8(2)26/h9-11,13-19,24,27-28,30-33H,3-6H2,1-2H3,(H,22,25)(H,23,29)(H,34,35)/t9-,10+,11+,13+,14+,15+,16-,17+,18+,19+,21+/m0/s1

> <INCHIKEY>
ISLDYJVZWMMZFX-JKSNITKSSA-N

> <PUBMED_CITATION>
18669916

$$$$

Marvin  06021113572D          

 35 37  0  0  1  0            999 V2000
    8.2924  -10.3572    0.0000 C   0  0  1  0  0  0  0  0  0  0  0  0
    7.5753  -10.7652    0.0000 C   0  0  1  0  0  0  0  0  0  0  0  0
    8.2924   -9.5289    0.0000 C   0  0  1  0  0  0  0  0  0  0  0  0
    7.5753   -9.1209    0.0000 O   0  0  0  0  0  0  0  0  0  0  0  0
    6.8582  -10.3572    0.0000 C   0  0  1  0  0  0  0  0  0  0  0  0
    6.8582   -9.5289    0.0000 C   0  0  2  0  0  0  0  0  0  0  0  0
    8.9971  -10.7652    0.0000 O   0  0  0  0  0  0  0  0  0  0  0  0
    7.5753  -11.5935    0.0000 O   0  0  0  0  0  0  0  0  0  0  0  0
    6.1412  -10.7652    0.0000 O   0  0  0  0  0  0  0  0  0  0  0  0
    8.9971   -9.1209    0.0000 O   0  0  0  0  0  0  0  0  0  0  0  0
    6.1412   -9.1209    0.0000 C   0  0  0  0  0  0  0  0  0  0  0  0
    9.7116   -7.0584    0.0000 C   0  0  1  0  0  0  0  0  0  0  0  0
    9.7116   -7.8834    0.0000 C   0  0  1  0  0  0  0  0  0  0  0  0
    8.9971   -6.6459    0.0000 O   0  0  0  0  0  0  0  0  0  0  0  0
    8.9971   -8.2959    0.0000 C   0  0  2  0  0  0  0  0  0  0  0  0
    8.2826   -7.0584    0.0000 C   0  0  1  0  0  0  0  0  0  0  0  0
    8.2826   -7.8834    0.0000 C   0  0  1  0  0  0  0  0  0  0  0  0
   10.4261   -6.6459    0.0000 O   0  0  0  0  0  0  0  0  0  0  0  0
   10.4261   -8.2959    0.0000 N   0  0  0  0  0  0  0  0  0  0  0  0
    7.5682   -8.2959    0.0000 O   0  0  0  0  0  0  0  0  0  0  0  0
    7.5682   -6.6459    0.0000 C   0  0  0  0  0  0  0  0  0  0  0  0
    6.8537   -7.0584    0.0000 O   0  0  0  0  0  0  0  0  0  0  0  0
   10.4268   -9.1247    0.0000 C   0  0  0  0  0  0  0  0  0  0  0  0
   11.1416   -9.5366    0.0000 C   0  0  0  0  0  0  0  0  0  0  0  0
    9.7127   -9.5379    0.0000 O   0  0  0  0  0  0  0  0  0  0  0  0
    9.7231  -11.9891    0.0000 C   0  0  1  0  0  0  0  0  0  0  0  0
    9.7231  -12.8141    0.0000 C   0  0  1  0  0  0  0  0  0  0  0  0
    9.0032  -11.5794    0.0000 C   0  0  1  0  0  0  0  0  0  0  0  0
    8.2940  -12.0009    0.0000 O   0  0  0  0  0  0  0  0  0  0  0  0
    9.0139  -13.2356    0.0000 C   0  0  1  0  0  0  0  0  0  0  0  0
    8.2940  -12.8259    0.0000 C   0  0  2  0  0  0  0  0  0  0  0  0
   10.4262  -11.5783    0.0000 O   0  0  0  0  0  0  0  0  0  0  0  0
   10.4431  -13.2237    0.0000 O   0  0  0  0  0  0  0  0  0  0  0  0
    9.0139  -14.0606    0.0000 O   0  0  0  0  0  0  0  0  0  0  0  0
    7.5847  -13.2474    0.0000 C   0  0  0  0  0  0  0  0  0  0  0  0
  2  1  1  0  0  0  0
  3  1  1  0  0  0  0
  1  7  1  1  0  0  0
  5  2  1  0  0  0  0
  2  8  1  6  0  0  0
  4  3  1  0  0  0  0
  3 10  1  1  0  0  0
  6  4  1  0  0  0  0
  5  9  1  6  0  0  0
  6  5  1  0  0  0  0
  6 11  1  6  0  0  0
 12 13  1  0  0  0  0
 12 14  1  0  0  0  0
 13 15  1  0  0  0  0
 14 16  1  0  0  0  0
 15 17  1  0  0  0  0
 16 17  1  0  0  0  0
 12 18  1  1  0  0  0
 13 19  1  6  0  0  0
 15 10  1  1  0  0  0
 17 20  1  6  0  0  0
 16 21  1  1  0  0  0
 22 21  1  0  0  0  0
 19 23  1  0  0  0  0
 23 24  1  0  0  0  0
 23 25  2  0  0  0  0
 27 26  1  0  0  0  0
 28 26  1  0  0  0  0
 26 32  1  1  0  0  0
 30 27  1  0  0  0  0
 27 33  1  6  0  0  0
 29 28  1  0  0  0  0
 28  7  1  1  0  0  0
 31 29  1  0  0  0  0
 30 34  1  6  0  0  0
 31 30  1  0  0  0  0
 31 35  1  6  0  0  0
M  END
> <ID>
CHEBI:62278

> <NAME>
alpha-L-Fucp-(1->2)-alpha-L-Fucp-(1->3)-beta-D-GlcpNAc

> <DEFINITION>
An amino trisaccharide consisting of two α-L-fucosyl residues and an N-acetyl β-D-glcosamine joined in a linear sequence by a (1→2)- and a (1→3)-linkage, respectively.

> <STAR>
3

> <SYNONYM>
alpha-L-Fuc-(1->2)-alpha-L-Fuc-(1->3)-beta-D-GlcNAc; alpha-L-Fuc-(1-2)-alpha-L-Fuc-(1-3)-beta-D-GlcNAc; 6-deoxy-alpha-L-galactopyranosyl-(1->2)-6-deoxy-alpha-L-galactopyranosyl-(1->3)-2-(acetylamino)-2-deoxy-beta-D-glucopyranose

> <IUPAC_NAME>
6-deoxy-alpha-L-galactopyranosyl-(1->2)-6-deoxy-alpha-L-galactopyranosyl-(1->3)-2-acetamido-2-deoxy-beta-D-glucopyranose

> <FORMULA>
C20H35NO14

> <MASS>
513.49020

> <MONOISOTOPIC_MASS>
513.20575

> <CHARGE>
0

> <SMILES>
C[C@@H]1O[C@@H](O[C@H]2[C@H](O)[C@H](O)[C@H](C)O[C@H]2O[C@H]2[C@H](O)[C@@H](CO)O[C@@H](O)[C@@H]2NC(C)=O)[C@@H](O)[C@H](O)[C@@H]1O

> <INCHI>
InChI=1S/C20H35NO14/c1-5-10(24)13(27)15(29)19(31-5)35-17-14(28)11(25)6(2)32-20(17)34-16-9(21-7(3)23)18(30)33-8(4-22)12(16)26/h5-6,8-20,22,24-30H,4H2,1-3H3,(H,21,23)/t5-,6-,8+,9+,10+,11+,12+,13+,14+,15-,16+,17-,18+,19-,20-/m0/s1

> <INCHIKEY>
FAINRCMUZRLJPX-CSEZVLSJSA-N

$$$$

Marvin  06021114372D          

 45 48  0  0  1  0            999 V2000
    8.2924  -10.3572    0.0000 C   0  0  1  0  0  0  0  0  0  0  0  0
    7.5753  -10.7652    0.0000 C   0  0  1  0  0  0  0  0  0  0  0  0
    8.2924   -9.5289    0.0000 C   0  0  1  0  0  0  0  0  0  0  0  0
    7.5753   -9.1209    0.0000 O   0  0  0  0  0  0  0  0  0  0  0  0
    6.8582  -10.3572    0.0000 C   0  0  1  0  0  0  0  0  0  0  0  0
    6.8582   -9.5289    0.0000 C   0  0  2  0  0  0  0  0  0  0  0  0
    8.9971  -10.7652    0.0000 O   0  0  0  0  0  0  0  0  0  0  0  0
    7.5753  -11.5935    0.0000 O   0  0  0  0  0  0  0  0  0  0  0  0
    6.1412  -10.7652    0.0000 O   0  0  0  0  0  0  0  0  0  0  0  0
    8.9971   -9.1209    0.0000 O   0  0  0  0  0  0  0  0  0  0  0  0
    6.1412   -9.1209    0.0000 C   0  0  0  0  0  0  0  0  0  0  0  0
    9.7116   -7.0584    0.0000 C   0  0  1  0  0  0  0  0  0  0  0  0
    9.7116   -7.8834    0.0000 C   0  0  1  0  0  0  0  0  0  0  0  0
    8.9971   -6.6459    0.0000 O   0  0  0  0  0  0  0  0  0  0  0  0
    8.9971   -8.2959    0.0000 C   0  0  2  0  0  0  0  0  0  0  0  0
    8.2826   -7.0584    0.0000 C   0  0  1  0  0  0  0  0  0  0  0  0
    8.2826   -7.8834    0.0000 C   0  0  1  0  0  0  0  0  0  0  0  0
   10.4261   -6.6459    0.0000 O   0  0  0  0  0  0  0  0  0  0  0  0
   10.4261   -8.2959    0.0000 N   0  0  0  0  0  0  0  0  0  0  0  0
    7.5682   -8.2959    0.0000 O   0  0  0  0  0  0  0  0  0  0  0  0
    7.5682   -6.6459    0.0000 C   0  0  0  0  0  0  0  0  0  0  0  0
    6.8537   -7.0584    0.0000 O   0  0  0  0  0  0  0  0  0  0  0  0
   10.4268   -9.1247    0.0000 C   0  0  0  0  0  0  0  0  0  0  0  0
   11.1416   -9.5366    0.0000 C   0  0  0  0  0  0  0  0  0  0  0  0
    9.7127   -9.5379    0.0000 O   0  0  0  0  0  0  0  0  0  0  0  0
    9.7231  -11.9891    0.0000 C   0  0  1  0  0  0  0  0  0  0  0  0
    9.7231  -12.8141    0.0000 C   0  0  1  0  0  0  0  0  0  0  0  0
    9.0032  -11.5794    0.0000 C   0  0  1  0  0  0  0  0  0  0  0  0
    8.2940  -12.0009    0.0000 O   0  0  0  0  0  0  0  0  0  0  0  0
    9.0139  -13.2356    0.0000 C   0  0  1  0  0  0  0  0  0  0  0  0
    8.2940  -12.8259    0.0000 C   0  0  2  0  0  0  0  0  0  0  0  0
   10.4262  -11.5783    0.0000 O   0  0  0  0  0  0  0  0  0  0  0  0
   10.4431  -13.2237    0.0000 O   0  0  0  0  0  0  0  0  0  0  0  0
    9.0139  -14.0606    0.0000 O   0  0  0  0  0  0  0  0  0  0  0  0
    7.5847  -13.2474    0.0000 C   0  0  0  0  0  0  0  0  0  0  0  0
   11.8493  -11.5794    0.0000 C   0  0  1  0  0  0  0  0  0  0  0  0
   12.5585  -12.0009    0.0000 C   0  0  1  0  0  0  0  0  0  0  0  0
   11.1293  -11.9891    0.0000 C   0  0  1  0  0  0  0  0  0  0  0  0
   11.1293  -12.8141    0.0000 O   0  0  0  0  0  0  0  0  0  0  0  0
   12.5585  -12.8259    0.0000 C   0  0  1  0  0  0  0  0  0  0  0  0
   11.8385  -13.2356    0.0000 C   0  0  2  0  0  0  0  0  0  0  0  0
   11.8554  -10.7652    0.0000 O   0  0  0  0  0  0  0  0  0  0  0  0
   13.2784  -11.5913    0.0000 O   0  0  0  0  0  0  0  0  0  0  0  0
   13.2677  -13.2474    0.0000 O   0  0  0  0  0  0  0  0  0  0  0  0
   11.8385  -14.0606    0.0000 C   0  0  0  0  0  0  0  0  0  0  0  0
  2  1  1  0  0  0  0
  3  1  1  0  0  0  0
  1  7  1  1  0  0  0
  5  2  1  0  0  0  0
  2  8  1  6  0  0  0
  4  3  1  0  0  0  0
  3 10  1  1  0  0  0
  6  4  1  0  0  0  0
  5  9  1  6  0  0  0
  6  5  1  0  0  0  0
  6 11  1  6  0  0  0
 12 13  1  0  0  0  0
 12 14  1  0  0  0  0
 13 15  1  0  0  0  0
 14 16  1  0  0  0  0
 15 17  1  0  0  0  0
 16 17  1  0  0  0  0
 12 18  1  1  0  0  0
 13 19  1  6  0  0  0
 15 10  1  1  0  0  0
 17 20  1  6  0  0  0
 16 21  1  1  0  0  0
 22 21  1  0  0  0  0
 19 23  1  0  0  0  0
 23 24  1  0  0  0  0
 23 25  2  0  0  0  0
 27 26  1  0  0  0  0
 28 26  1  0  0  0  0
 26 32  1  1  0  0  0
 30 27  1  0  0  0  0
 27 33  1  6  0  0  0
 29 28  1  0  0  0  0
 28  7  1  1  0  0  0
 31 29  1  0  0  0  0
 30 34  1  6  0  0  0
 31 30  1  0  0  0  0
 31 35  1  6  0  0  0
 37 36  1  0  0  0  0
 38 36  1  0  0  0  0
 36 42  1  1  0  0  0
 40 37  1  0  0  0  0
 37 43  1  6  0  0  0
 39 38  1  0  0  0  0
 38 32  1  1  0  0  0
 41 39  1  0  0  0  0
 40 44  1  6  0  0  0
 41 40  1  0  0  0  0
 41 45  1  6  0  0  0
M  END
> <ID>
CHEBI:62280

> <NAME>
alpha-L-Fucp-(1->2)-alpha-L-Fucp-(1->2)-alpha-L-Fucp-(1->3)-beta-D-GlcpNAc

> <DEFINITION>
An amino tetrasaccharide consisting of three α-L-fucosyl residues and an N-acetyl β-D-glcosamine joined in a linear sequence by two (1→2)- and one (1→3)-linkages, respectively.

> <STAR>
3

> <SYNONYM>
alpha-L-fucopyranosyl-(1->2)-alpha-L-fucoopyranosyl-(1->2)-alpha-L-fucopyranosyl-(1->3)-2-acetamido-2-deoxy-beta-D-glucopyranose; alpha-L-Fuc-(1->2)-alpha-L-Fuc-(1->2)-alpha-L-Fuc-(1->3)-beta-D-GlcNAc; 6-deoxy-alpha-L-galactopyranosyl-(1->2)-6-deoxy-alpha-L-galactopyranosyl-(1->2)-6-deoxy-alpha-L-galactopyranosyl-(1->3)-2-(acetylamino)-2-deoxy-beta-D-glucopyranose

> <IUPAC_NAME>
6-deoxy-alpha-L-galactopyranosyl-(1->2)-6-deoxy-alpha-L-galactopyranosyl-(1->2)-6-deoxy-alpha-L-galactopyranosyl-(1->3)-2-acetamido-2-deoxy-beta-D-glucopyranose

> <FORMULA>
C26H45NO18

> <MASS>
659.63140

> <MONOISOTOPIC_MASS>
659.26366

> <CHARGE>
0

> <SMILES>
C[C@@H]1O[C@@H](O[C@H]2[C@H](O)[C@H](O)[C@H](C)O[C@H]2O[C@H]2[C@H](O)[C@H](O)[C@H](C)O[C@H]2O[C@H]2[C@H](O)[C@@H](CO)O[C@@H](O)[C@@H]2NC(C)=O)[C@@H](O)[C@H](O)[C@@H]1O

> <INCHI>
InChI=1S/C26H45NO18/c1-6-12(30)16(34)19(37)24(39-6)44-21-17(35)13(31)8(3)41-26(21)45-22-18(36)14(32)7(2)40-25(22)43-20-11(27-9(4)29)23(38)42-10(5-28)15(20)33/h6-8,10-26,28,30-38H,5H2,1-4H3,(H,27,29)/t6-,7-,8-,10+,11+,12+,13+,14+,15+,16+,17+,18+,19-,20+,21-,22-,23+,24-,25-,26-/m0/s1

> <INCHIKEY>
SRUYBLVDFTUSDJ-XANPQJLYSA-N

> <PUBMED_CITATION>
15848768

$$$$

Marvin  06021116522D          

 23 24  0  0  1  0            999 V2000
   16.7390  -16.5348    0.0000 C   0  0  0  0  0  0  0  0  0  0  0  0
   17.5292  -16.2977    0.0000 O   0  0  0  0  0  0  0  0  0  0  0  0
   16.4909  -17.3155    0.0000 C   0  0  2  0  0  0  0  0  0  0  0  0
   16.9714  -17.9982    0.0000 O   0  0  0  0  0  0  0  0  0  0  0  0
   15.6296  -17.3155    0.0000 C   0  0  1  0  0  0  0  0  0  0  0  0
   15.1611  -17.9643    0.0000 O   0  0  0  0  0  0  0  0  0  0  0  0
   15.3925  -16.5254    0.0000 C   0  0  1  0  0  0  0  0  0  0  0  0
   16.0752  -16.0449    0.0000 O   0  0  0  0  0  0  0  0  0  0  0  0
   14.6181  -16.2409    0.0000 C   0  0  0  0  0  0  0  0  0  0  0  0
   13.9955  -16.8067    0.0000 O   0  0  0  0  0  0  0  0  0  0  0  0
   13.1997  -16.5373    0.0000 C   0  0  0  0  0  0  0  0  0  0  0  0
   13.0417  -15.7234    0.0000 C   0  0  0  0  0  0  0  0  0  0  0  0
   12.2459  -15.4540    0.0000 C   0  0  0  0  0  0  0  0  0  0  0  0
   12.5834  -17.0668    0.0000 O   0  0  0  0  0  0  0  0  0  0  0  0
   12.5461  -13.2967    0.0000 C   0  0  0  0  0  0  0  0  0  0  0  0
   11.7717  -13.0123    0.0000 C   0  0  0  0  0  0  0  0  0  0  0  0
   11.1340  -13.5568    0.0000 C   0  0  0  0  0  0  0  0  0  0  0  0
   11.3135  -14.3557    0.0000 C   0  0  0  0  0  0  0  0  0  0  0  0
   12.0878  -14.6401    0.0000 C   0  0  0  0  0  0  0  0  0  0  0  0
   12.7105  -14.0743    0.0000 C   0  0  0  0  0  0  0  0  0  0  0  0
   11.6136  -12.1984    0.0000 O   0  0  0  0  0  0  0  0  0  0  0  0
   13.1687  -12.7310    0.0000 O   0  0  0  0  0  0  0  0  0  0  0  0
   13.0107  -11.9170    0.0000 C   0  0  0  0  0  0  0  0  0  0  0  0
  2  1  1  0  0  0  0
  3  1  1  0  0  0  0
  8  1  1  0  0  0  0
  3  4  1  6  0  0  0
  5  3  1  0  0  0  0
  5  6  1  1  0  0  0
  7  5  1  0  0  0  0
  8  7  1  0  0  0  0
  7  9  1  6  0  0  0
 10  9  1  0  0  0  0
 11 10  1  0  0  0  0
 12 11  1  0  0  0  0
 14 11  2  0  0  0  0
 13 12  2  0  0  0  0
 19 13  1  0  0  0  0
 20 15  2  0  0  0  0
 16 15  1  0  0  0  0
 22 15  1  0  0  0  0
 17 16  2  0  0  0  0
 21 16  1  0  0  0  0
 18 17  1  0  0  0  0
 19 18  2  0  0  0  0
 20 19  1  0  0  0  0
 23 22  1  0  0  0  0
M  END
> <ID>
CHEBI:62281

> <NAME>
5-O-(trans-feruloyl)-L-arabinofuranose

> <DEFINITION>
The O-acyl carbohydrate that is L-arabinofuranose trans-feruloylated at position 5.

> <STAR>
3

> <SYNONYM>
Ara1F

> <IUPAC_NAME>
5-O-[(2E)-3-(4-hydroxy-3-methoxyphenyl)prop-2-enoyl]-L-arabinofuranose

> <FORMULA>
C15H18O8

> <MASS>
326.29860

> <MONOISOTOPIC_MASS>
326.10017

> <CHARGE>
0

> <SMILES>
COc1cc(\C=C\C(=O)OC[C@@H]2OC(O)[C@H](O)[C@H]2O)ccc1O

> <INCHI>
InChI=1S/C15H18O8/c1-21-10-6-8(2-4-9(10)16)3-5-12(17)22-7-11-13(18)14(19)15(20)23-11/h2-6,11,13-16,18-20H,7H2,1H3/b5-3+/t11-,13-,14+,15?/m0/s1

> <INCHIKEY>
BDEXCUQHBTVULQ-PQRDISFUSA-N

> <REAXYS_REGISTRY_NUMBER>
7080322

> <PUBMED_CITATION>
15221383

$$$$

Marvin  06021117112D          

 25 26  0  0  1  0            999 V2000
   29.5591  -12.1364    0.0000 C   0  0  0  0  0  0  0  0  0  0  0  0
   29.5591  -12.9614    0.0000 C   0  0  1  0  0  0  0  0  0  0  0  0
   28.8445  -11.7239    0.0000 O   0  0  0  0  0  0  0  0  0  0  0  0
   28.8445  -13.3739    0.0000 C   0  0  2  0  0  0  0  0  0  0  0  0
   28.1301  -12.1364    0.0000 C   0  0  1  0  0  0  0  0  0  0  0  0
   28.1301  -12.9614    0.0000 C   0  0  2  0  0  0  0  0  0  0  0  0
   30.2735  -11.7239    0.0000 O   0  0  0  0  0  0  0  0  0  0  0  0
   30.2735  -13.3739    0.0000 O   0  0  0  0  0  0  0  0  0  0  0  0
   28.8445  -14.1989    0.0000 O   0  0  0  0  0  0  0  0  0  0  0  0
   27.4156  -13.3739    0.0000 O   0  0  0  0  0  0  0  0  0  0  0  0
   27.4156  -11.7239    0.0000 C   0  0  0  0  0  0  0  0  0  0  0  0
   26.7012  -12.1364    0.0000 O   0  0  0  0  0  0  0  0  0  0  0  0
   25.9867  -11.7240    0.0000 C   0  0  0  0  0  0  0  0  0  0  0  0
   25.2722  -12.1365    0.0000 O   0  0  0  0  0  0  0  0  0  0  0  0
   25.9867  -10.8990    0.0000 C   0  0  0  0  0  0  0  0  0  0  0  0
   25.2722  -10.4864    0.0000 C   0  0  0  0  0  0  0  0  0  0  0  0
   25.2722   -9.6614    0.0000 C   0  0  0  0  0  0  0  0  0  0  0  0
   25.9868   -8.4239    0.0000 C   0  0  0  0  0  0  0  0  0  0  0  0
   25.9868   -9.2489    0.0000 C   0  0  0  0  0  0  0  0  0  0  0  0
   25.2722   -8.0114    0.0000 C   0  0  0  0  0  0  0  0  0  0  0  0
   24.5578   -8.4239    0.0000 C   0  0  0  0  0  0  0  0  0  0  0  0
   24.5578   -9.2489    0.0000 C   0  0  0  0  0  0  0  0  0  0  0  0
   25.2722   -7.1864    0.0000 O   0  0  0  0  0  0  0  0  0  0  0  0
   26.7012   -8.0114    0.0000 O   0  0  0  0  0  0  0  0  0  0  0  0
   26.7012   -7.1864    0.0000 C   0  0  0  0  0  0  0  0  0  0  0  0
  1  2  1  0  0  0  0
  1  3  1  0  0  0  0
  2  4  1  0  0  0  0
  3  5  1  0  0  0  0
  4  6  1  0  0  0  0
  5  6  1  0  0  0  0
  1  7  1  0  0  0  0
  2  8  1  6  0  0  0
  4  9  1  1  0  0  0
  6 10  1  1  0  0  0
  5 11  1  1  0  0  0
 12 11  1  0  0  0  0
 12 13  1  0  0  0  0
 13 14  2  0  0  0  0
 13 15  1  0  0  0  0
 15 16  2  0  0  0  0
 16 17  1  0  0  0  0
 19 18  1  0  0  0  0
 20 18  2  0  0  0  0
 17 19  2  0  0  0  0
 21 20  1  0  0  0  0
 22 17  1  0  0  0  0
 22 21  2  0  0  0  0
 20 23  1  0  0  0  0
 18 24  1  0  0  0  0
 24 25  1  0  0  0  0
M  END
> <ID>
CHEBI:62282

> <NAME>
6-O-(trans-feruloyl)-D-galactopyranose

> <DEFINITION>
The O-acyl carbohydrate that is D-galactopyranose trans-feruloylated at position 6.

> <STAR>
3

> <IUPAC_NAME>
6-O-[(2E)-3-(4-hydroxy-3-methoxyphenyl)prop-2-enoyl]-D-galactopyranose

> <FORMULA>
C16H20O9

> <MASS>
356.32460

> <MONOISOTOPIC_MASS>
356.11073

> <CHARGE>
0

> <SMILES>
COc1cc(\C=C\C(=O)OC[C@H]2OC(O)[C@H](O)[C@@H](O)[C@H]2O)ccc1O

> <INCHI>
InChI=1S/C16H20O9/c1-23-10-6-8(2-4-9(10)17)3-5-12(18)24-7-11-13(19)14(20)15(21)16(22)25-11/h2-6,11,13-17,19-22H,7H2,1H3/b5-3+/t11-,13+,14+,15-,16?/m1/s1

> <INCHIKEY>
LVNFIOGAAUPIPC-RSOBVVHTSA-N

> <PUBMED_CITATION>
15221383; 9805328

$$$$

Marvin  06061111522D          

 27 28  0  0  1  0            999 V2000
    8.9042  -19.2235    0.0000 C   0  0  1  0  0  0  0  0  0  0  0  0
    8.9042  -20.0485    0.0000 C   0  0  1  0  0  0  0  0  0  0  0  0
    8.1897  -18.8110    0.0000 O   0  0  0  0  0  0  0  0  0  0  0  0
    8.1897  -20.4610    0.0000 C   0  0  2  0  0  0  0  0  0  0  0  0
    7.4753  -19.2235    0.0000 C   0  0  1  0  0  0  0  0  0  0  0  0
    7.4753  -20.0485    0.0000 C   0  0  2  0  0  0  0  0  0  0  0  0
    9.6187  -18.8110    0.0000 O   0  0  0  0  0  0  0  0  0  0  0  0
    9.6187  -20.4610    0.0000 O   0  0  0  0  0  0  0  0  0  0  0  0
    8.1897  -21.2860    0.0000 O   0  0  0  0  0  0  0  0  0  0  0  0
    6.7608  -20.4610    0.0000 O   0  0  0  0  0  0  0  0  0  0  0  0
    6.7608  -18.8110    0.0000 C   0  0  0  0  0  0  0  0  0  0  0  0
    6.0463  -19.2235    0.0000 O   0  0  0  0  0  0  0  0  0  0  0  0
   11.7621  -17.5735    0.0000 C   0  0  2  0  0  0  0  0  0  0  0  0
   11.7621  -18.3985    0.0000 C   0  0  1  0  0  0  0  0  0  0  0  0
   11.0476  -17.1610    0.0000 O   0  0  0  0  0  0  0  0  0  0  0  0
   11.0476  -18.8110    0.0000 C   0  0  2  0  0  0  0  0  0  0  0  0
   10.3332  -17.5735    0.0000 C   0  0  1  0  0  0  0  0  0  0  0  0
   10.3332  -18.3985    0.0000 C   0  0  1  0  0  0  0  0  0  0  0  0
   12.4766  -17.1610    0.0000 O   0  0  0  0  0  0  0  0  0  0  0  0
   12.4766  -18.8110    0.0000 N   0  0  0  0  0  0  0  0  0  0  0  0
   11.0476  -19.6360    0.0000 O   0  0  0  0  0  0  0  0  0  0  0  0
    9.6187  -17.1610    0.0000 C   0  0  0  0  0  0  0  0  0  0  0  0
    8.9042  -17.5735    0.0000 O   0  0  0  0  0  0  0  0  0  0  0  0
   12.4766  -19.6360    0.0000 C   0  0  0  0  0  0  0  0  0  0  0  0
   13.1911  -20.0486    0.0000 C   0  0  0  0  0  0  0  0  0  0  0  0
   11.7621  -20.0485    0.0000 O   0  0  0  0  0  0  0  0  0  0  0  0
   13.1911  -17.5735    0.0000 C   0  0  0  0  0  0  0  0  0  0  0  0
  1  2  1  0  0  0  0
  1  3  1  0  0  0  0
  2  4  1  0  0  0  0
  3  5  1  0  0  0  0
  4  6  1  0  0  0  0
  5  6  1  0  0  0  0
  1  7  1  1  0  0  0
  2  8  1  6  0  0  0
  4  9  1  1  0  0  0
  6 10  1  1  0  0  0
  5 11  1  1  0  0  0
 12 11  1  0  0  0  0
 13 14  1  0  0  0  0
 13 15  1  0  0  0  0
 14 16  1  0  0  0  0
 15 17  1  0  0  0  0
 16 18  1  0  0  0  0
 17 18  1  0  0  0  0
 13 19  1  6  0  0  0
 14 20  1  6  0  0  0
 16 21  1  1  0  0  0
 18  7  1  6  0  0  0
 17 22  1  1  0  0  0
 23 22  1  0  0  0  0
 25 24  1  0  0  0  0
 26 24  2  0  0  0  0
 20 24  1  0  0  0  0
 19 27  1  0  0  0  0
M  END
> <ID>
CHEBI:62284

> <NAME>
beta-D-Galp-(1->4)-alpha-D-GlcpNAc-OMe

> <DEFINITION>
A methyl glycoside that is β-D-galactopyranosyl-(1→4)-2-acetamido-2-deoxy-α-D-glucopyranose in which the anomeric hydroxy group is replaced by methoxy.

> <STAR>
3

> <SYNONYM>
methyl N-acetyl-alpha-D-lactosaminide; methyl 2-acetamido-2-deoxy-4-O-beta-D-galactopyranosyl-alpha-D-glucopyranoside; methyl 2-(acetylamino)-2-deoxy-4-O-beta-D-galactopyranosyl-alpha-D-glucopyranoside; Gal-beta1,4-GlcNAc-alpha1-O-Me; beta-D-Gal-(1->4)-alpha-D-GlcNAc-OMe

> <IUPAC_NAME>
methyl beta-D-galactopyranosyl-(1->4)-2-acetamido-2-deoxy-alpha-D-glucopyranoside

> <FORMULA>
C15H27NO11

> <MASS>
397.37500

> <MONOISOTOPIC_MASS>
397.15841

> <CHARGE>
0

> <SMILES>
CO[C@H]1O[C@H](CO)[C@@H](O[C@@H]2O[C@H](CO)[C@H](O)[C@H](O)[C@H]2O)[C@H](O)[C@H]1NC(C)=O

> <INCHI>
InChI=1S/C15H27NO11/c1-5(19)16-8-10(21)13(7(4-18)26-14(8)24-2)27-15-12(23)11(22)9(20)6(3-17)25-15/h6-15,17-18,20-23H,3-4H2,1-2H3,(H,16,19)/t6-,7-,8-,9+,10-,11+,12-,13-,14+,15+/m1/s1

> <INCHIKEY>
PKPZITUQXLANSE-ZSCXKYTFSA-N

> <REAXYS_REGISTRY_NUMBER>
4825437

> <PUBMED_CITATION>
6083447

$$$$

Marvin  06061112392D          

 31 32  0  0  1  0            999 V2000
    9.9976  -21.7184    0.0000 C   0  0  1  0  0  0  0  0  0  0  0  0
    9.9976  -22.5434    0.0000 C   0  0  1  0  0  0  0  0  0  0  0  0
    9.2831  -21.3059    0.0000 O   0  0  0  0  0  0  0  0  0  0  0  0
    9.2831  -22.9559    0.0000 C   0  0  2  0  0  0  0  0  0  0  0  0
    8.5686  -21.7184    0.0000 C   0  0  1  0  0  0  0  0  0  0  0  0
    8.5686  -22.5434    0.0000 C   0  0  1  0  0  0  0  0  0  0  0  0
   10.7121  -21.3058    0.0000 O   0  0  0  0  0  0  0  0  0  0  0  0
   10.7121  -22.9559    0.0000 O   0  0  0  0  0  0  0  0  0  0  0  0
    9.2831  -23.7809    0.0000 O   0  0  0  0  0  0  0  0  0  0  0  0
    7.8542  -22.9559    0.0000 O   0  0  0  0  0  0  0  0  0  0  0  0
    7.8542  -21.3059    0.0000 C   0  0  0  0  0  0  0  0  0  0  0  0
    7.1397  -21.7184    0.0000 O   0  0  0  0  0  0  0  0  0  0  0  0
   11.4266  -19.2433    0.0000 C   0  0  0  0  0  0  0  0  0  0  0  0
   11.4266  -20.0683    0.0000 C   0  0  1  0  0  0  0  0  0  0  0  0
   10.7121  -18.8308    0.0000 O   0  0  0  0  0  0  0  0  0  0  0  0
   10.7121  -20.4808    0.0000 C   0  0  2  0  0  0  0  0  0  0  0  0
    9.9976  -19.2433    0.0000 C   0  0  1  0  0  0  0  0  0  0  0  0
    9.9976  -20.0683    0.0000 C   0  0  2  0  0  0  0  0  0  0  0  0
   12.1411  -18.8308    0.0000 O   0  0  0  0  0  0  0  0  0  0  0  0
   12.1411  -20.4809    0.0000 O   0  0  0  0  0  0  0  0  0  0  0  0
    9.2832  -20.4808    0.0000 O   0  0  0  0  0  0  0  0  0  0  0  0
    9.2832  -18.8309    0.0000 C   0  0  0  0  0  0  0  0  0  0  0  0
    8.5687  -19.2434    0.0000 O   0  0  0  0  0  0  0  0  0  0  0  0
    7.8542  -20.4809    0.0000 O   0  0  0  0  0  0  0  0  0  0  0  0
    8.5686  -24.1933    0.0000 S   0  0  0  0  0  0  0  0  0  0  0  0
    8.9811  -24.9079    0.0000 O   0  0  0  0  0  0  0  0  0  0  0  0
    8.1561  -23.4789    0.0000 O   0  0  0  0  0  0  0  0  0  0  0  0
    7.8541  -24.6058    0.0000 O   0  0  0  0  0  0  0  0  0  0  0  0
   12.8555  -19.2433    0.0000 C   0  0  0  0  0  0  0  0  0  0  0  0
   13.5700  -18.8308    0.0000 C   0  0  0  0  0  0  0  0  0  0  0  0
   14.2845  -19.2433    0.0000 C   0  0  0  0  0  0  0  0  0  0  0  0
  1  2  1  0  0  0  0
  1  3  1  0  0  0  0
  2  4  1  0  0  0  0
  3  5  1  0  0  0  0
  4  6  1  0  0  0  0
  5  6  1  0  0  0  0
  1  7  1  1  0  0  0
  2  8  1  6  0  0  0
  4  9  1  1  0  0  0
  6 10  1  6  0  0  0
  5 11  1  1  0  0  0
 12 11  1  0  0  0  0
 13 14  1  0  0  0  0
 13 15  1  0  0  0  0
 14 16  1  0  0  0  0
 15 17  1  0  0  0  0
 16 18  1  0  0  0  0
 17 18  1  0  0  0  0
 13 19  1  0  0  0  0
 14 20  1  6  0  0  0
 16  7  1  1  0  0  0
 18 21  1  1  0  0  0
 17 22  1  1  0  0  0
 23 22  1  0  0  0  0
 11 24  2  0  0  0  0
 26 25  2  0  0  0  0
 27 25  2  0  0  0  0
 28 25  1  0  0  0  0
  9 25  1  0  0  0  0
 19 29  1  0  0  0  0
 29 30  1  0  0  0  0
 30 31  2  0  0  0  0
M  END
> <ID>
CHEBI:62285

> <NAME>
3-O-sulfo-beta-D-GlcA-(1->3)-1-O-allyl-D-Gal

> <DEFINITION>
A glycoside comprising 3-O-sulfo-D-glucose linked β(1→3) to allyl D-galactoside.

> <STAR>
3

> <SYNONYM>
allyl 3-O-(3-O-sulfo-beta-D-glucopyranuronosyl)-D-galactopyranoside

> <IUPAC_NAME>
prop-2-en-1-yl 3-O-(3-O-sulfo-beta-D-glucopyranuronosyl)-D-galactopyranoside

> <FORMULA>
C15H24O15S

> <MASS>
476.40700

> <MONOISOTOPIC_MASS>
476.08359

> <CHARGE>
0

> <SMILES>
OC[C@H]1OC(OCC=C)[C@H](O)[C@@H](O[C@@H]2O[C@@H]([C@@H](O)[C@H](OS(O)(=O)=O)[C@H]2O)C(O)=O)[C@H]1O

> <INCHI>
InChI=1S/C15H24O15S/c1-2-3-26-14-8(19)10(6(17)5(4-16)27-14)28-15-9(20)11(30-31(23,24)25)7(18)12(29-15)13(21)22/h2,5-12,14-20H,1,3-4H2,(H,21,22)(H,23,24,25)/t5-,6+,7+,8-,9-,10+,11+,12+,14?,15-/m1/s1

> <INCHIKEY>
CWASFJCNAMXZRA-NNRCWHNVSA-N

> <PUBMED_CITATION>
12472892

$$$$

Marvin  06061115532D          

 36 38  0  0  1  0            999 V2000
   14.1169   -5.1344    0.0000 C   0  0  1  0  0  0  0  0  0  0  0  0
   14.8314   -4.7219    0.0000 C   0  0  2  0  0  0  0  0  0  0  0  0
   14.1169   -5.9592    0.0000 O   0  0  0  0  0  0  0  0  0  0  0  0
   13.4025   -4.7219    0.0000 C   0  0  1  0  0  0  0  0  0  0  0  0
   14.8314   -3.8969    0.0000 C   0  0  0  0  0  0  0  0  0  0  0  0
   13.4025   -3.8969    0.0000 C   0  0  2  0  0  0  0  0  0  0  0  0
   12.6879   -5.1344    0.0000 O   0  0  0  0  0  0  0  0  0  0  0  0
   14.1169   -3.4844    0.0000 O   0  0  0  0  0  0  0  0  0  0  0  0
   15.5457   -3.4844    0.0000 O   0  0  0  0  0  0  0  0  0  0  0  0
   12.6879   -3.4844    0.0000 C   0  0  0  0  0  0  0  0  0  0  0  0
   15.5457   -5.1344    0.0000 N   0  0  0  0  0  0  0  0  0  0  0  0
   16.2603   -4.7219    0.0000 C   0  0  0  0  0  0  0  0  0  0  0  0
   16.9747   -5.1344    0.0000 C   0  0  0  0  0  0  0  0  0  0  0  0
   16.2603   -3.8969    0.0000 O   0  0  0  0  0  0  0  0  0  0  0  0
   12.6879   -2.6594    0.0000 O   0  0  0  0  0  0  0  0  0  0  0  0
   10.5446   -3.8967    0.0000 C   0  0  2  0  0  0  0  0  0  0  0  0
   10.5446   -4.7217    0.0000 C   0  0  1  0  0  0  0  0  0  0  0  0
   11.9735   -4.7219    0.0000 C   0  0  2  0  0  0  0  0  0  0  0  0
   11.9735   -3.8969    0.0000 O   0  0  0  0  0  0  0  0  0  0  0  0
   11.2591   -5.1342    0.0000 C   0  0  2  0  0  0  0  0  0  0  0  0
   11.2591   -3.4842    0.0000 C   0  0  2  0  0  0  0  0  0  0  0  0
   11.2590   -5.9592    0.0000 O   0  0  0  0  0  0  0  0  0  0  0  0
    9.8300   -5.1342    0.0000 O   0  0  0  0  0  0  0  0  0  0  0  0
    9.8302   -3.4844    0.0000 O   0  0  0  0  0  0  0  0  0  0  0  0
   11.2591   -2.6594    0.0000 C   0  0  0  0  0  0  0  0  0  0  0  0
   10.5447   -2.2469    0.0000 O   0  0  0  0  0  0  0  0  0  0  0  0
   13.4023   -7.1967    0.0000 O   0  0  0  0  0  0  0  0  0  0  0  0
   13.4023   -8.0217    0.0000 C   0  0  2  0  0  0  0  0  0  0  0  0
   14.1169   -6.7842    0.0000 C   0  0  2  0  0  0  0  0  0  0  0  0
   14.8313   -7.1967    0.0000 C   0  0  2  0  0  0  0  0  0  0  0  0
   14.8311   -8.0217    0.0000 C   0  0  1  0  0  0  0  0  0  0  0  0
   14.1167   -8.4342    0.0000 C   0  0  2  0  0  0  0  0  0  0  0  0
   15.5457   -6.7844    0.0000 O   0  0  0  0  0  0  0  0  0  0  0  0
   15.5457   -8.4344    0.0000 O   0  0  0  0  0  0  0  0  0  0  0  0
   14.1167   -9.2592    0.0000 O   0  0  0  0  0  0  0  0  0  0  0  0
   12.6878   -8.4341    0.0000 C   0  0  0  0  0  0  0  0  0  0  0  0
  1  2  1  0  0  0  0
  1  3  1  1  0  0  0
  1  4  1  0  0  0  0
  2  5  1  0  0  0  0
  2 11  1  6  0  0  0
  4  6  1  0  0  0  0
  4  7  1  6  0  0  0
  5  8  1  0  0  0  0
  5  9  1  0  0  0  0
  6 10  1  1  0  0  0
  6  8  1  0  0  0  0
 11 12  1  0  0  0  0
 12 13  1  0  0  0  0
 12 14  2  0  0  0  0
 10 15  1  0  0  0  0
 16 24  1  1  0  0  0
 17 16  1  0  0  0  0
 17 23  1  1  0  0  0
 18 19  1  0  0  0  0
 18 20  1  0  0  0  0
 20 17  1  0  0  0  0
 20 22  1  6  0  0  0
 21 16  1  0  0  0  0
 19 21  1  0  0  0  0
 21 25  1  1  0  0  0
 25 26  1  0  0  0  0
 18  7  1  1  0  0  0
 28 27  1  0  0  0  0
 29 27  1  0  0  0  0
 29  3  1  1  0  0  0
 29 30  1  0  0  0  0
 30 33  1  1  0  0  0
 30 31  1  0  0  0  0
 31 34  1  6  0  0  0
 31 32  1  0  0  0  0
 32 28  1  0  0  0  0
 32 35  1  6  0  0  0
 28 36  1  6  0  0  0
M  END
> <ID>
CHEBI:62287

> <NAME>
alpha-L-Fucp-(1->3)-[beta-D-Galp-(1->4)]-D-GlcpNAc

> <DEFINITION>
An amino trisaccharide consisting of N-acetylglucosamine having a fucosyl residue attached at the 3-position via an α-linkage and a galactosyl residue attached at the 4-position via a β-linkage.

> <STAR>
3

> <SYNONYM>
Tetraantennary neutral lactosaminoglycan; Le(x); Le(x); Lewis(x); Lewis x antigen; Galbeta1-4(Fucalpha1-3)GlcNAc; beta-D-galactosyl-(1->4)-(alpha-L-fucosyl-(1->3))-N-acetyl-D-glucosamine; beta-D-galactosyl-(1->4)-[alpha-L-fucosyl-(1->3)]-N-acetyl-D-glucosamine; beta-D-Gal-(1->4)-[alpha-L-Fuc-(1->3)]-D-GlcNAc; alpha-L-Fucp-(1->3)-[beta-D-Galp-(1->4)]-D-GlcpNAc; alpha-L-fucosyl-(1->3)-[beta-D-galactosyl-(1->4)]-N-acetyl-D-glucosamine; alpha-L-fucopyranosyl-(1->3)-[beta-D-galactopyranosyl-(1->4)]-2-(acetylamino)-2-deoxy-D-glucopyranose; alpha-L-Fuc-(1->3)-[beta-D-Gal-(1->4)]-D-GlcNAc; 6-deoxy-alpha-L-galactopyranosyl-(1->3)-[beta-D-galactopyranosyl-(1->4)]-2-acetamido-2-deoxy-D-glucopyranose; 3-Fucosyllactosamine; 3-FL; (Gal)1 (GlcNAc)1 (LFuc)1

> <IUPAC_NAME>
alpha-L-fucopyranosyl-(1->3)-[beta-D-galactopyranosyl-(1->4)]-2-acetamido-2-deoxy-D-glucopyranose

> <FORMULA>
C20H35NO15

> <MASS>
529.48960

> <MONOISOTOPIC_MASS>
529.20067

> <CHARGE>
0

> <SMILES>
C[C@@H]1O[C@@H](O[C@@H]2[C@@H](NC(C)=O)C(O)O[C@H](CO)[C@H]2O[C@@H]2O[C@H](CO)[C@H](O)[C@H](O)[C@H]2O)[C@@H](O)[C@H](O)[C@@H]1O

> <INCHI>
InChI=1S/C20H35NO15/c1-5-10(25)12(27)14(29)19(32-5)36-17-9(21-6(2)24)18(31)33-8(4-23)16(17)35-20-15(30)13(28)11(26)7(3-22)34-20/h5,7-20,22-23,25-31H,3-4H2,1-2H3,(H,21,24)/t5-,7+,8+,9+,10+,11-,12+,13-,14-,15+,16+,17+,18?,19-,20-/m0/s1

> <INCHIKEY>
HBBOZFUQJDYASD-QGTNPELVSA-N

> <REAXYS_REGISTRY_NUMBER>
6080155

> <KEGG_GLYCAN_ACCESSION>
G00243

> <PUBMED_CITATION>
12788923; 12932753; 16133831; 2125273; 22241826; 23724317; 2405185; 2430018; 2908539; 6083446; 6208947; 7792271; 7912739; 8532688; 9649244; 9649245

$$$$

Marvin  06141111502D          

 47 50  0  0  1  0            999 V2000
   13.9836   -7.2462    0.0000 C   0  0  1  0  0  0  0  0  0  0  0  0
   13.9836   -8.0712    0.0000 C   0  0  1  0  0  0  0  0  0  0  0  0
   13.2691   -6.8337    0.0000 O   0  0  0  0  0  0  0  0  0  0  0  0
   13.2691   -8.4837    0.0000 C   0  0  2  0  0  0  0  0  0  0  0  0
   12.5546   -7.2462    0.0000 C   0  0  1  0  0  0  0  0  0  0  0  0
   12.5546   -8.0712    0.0000 C   0  0  1  0  0  0  0  0  0  0  0  0
   14.6981   -6.8337    0.0000 O   0  0  0  0  0  0  0  0  0  0  0  0
   14.6981   -8.4837    0.0000 N   0  0  0  0  0  0  0  0  0  0  0  0
   13.2690   -9.3087    0.0000 O   0  0  0  0  0  0  0  0  0  0  0  0
   11.8402   -8.4837    0.0000 O   0  0  0  0  0  0  0  0  0  0  0  0
   11.8402   -6.8337    0.0000 C   0  0  0  0  0  0  0  0  0  0  0  0
   11.1257   -7.2462    0.0000 O   0  0  0  0  0  0  0  0  0  0  0  0
   11.1257   -8.8962    0.0000 C   0  0  1  0  0  0  0  0  0  0  0  0
   11.1257   -9.7212    0.0000 C   0  0  1  0  0  0  0  0  0  0  0  0
   10.4112   -8.4837    0.0000 O   0  0  0  0  0  0  0  0  0  0  0  0
   10.4112  -10.1337    0.0000 C   0  0  2  0  0  0  0  0  0  0  0  0
    9.6967   -8.8962    0.0000 C   0  0  1  0  0  0  0  0  0  0  0  0
    9.6967   -9.7212    0.0000 C   0  0  2  0  0  0  0  0  0  0  0  0
   11.8402  -10.1337    0.0000 O   0  0  0  0  0  0  0  0  0  0  0  0
   10.4111  -10.9587    0.0000 O   0  0  0  0  0  0  0  0  0  0  0  0
    8.9822  -10.1337    0.0000 O   0  0  0  0  0  0  0  0  0  0  0  0
    8.9822   -8.4837    0.0000 C   0  0  0  0  0  0  0  0  0  0  0  0
    8.2678   -8.8962    0.0000 O   0  0  0  0  0  0  0  0  0  0  0  0
   13.2690  -10.1337    0.0000 C   0  0  1  0  0  0  0  0  0  0  0  0
   13.9835  -10.5462    0.0000 C   0  0  2  0  0  0  0  0  0  0  0  0
   12.5546  -10.5462    0.0000 O   0  0  0  0  0  0  0  0  0  0  0  0
   13.9835  -11.3713    0.0000 C   0  0  1  0  0  0  0  0  0  0  0  0
   12.5546  -11.3712    0.0000 C   0  0  2  0  0  0  0  0  0  0  0  0
   13.2690  -11.7837    0.0000 C   0  0  1  0  0  0  0  0  0  0  0  0
   14.6980  -10.1337    0.0000 O   0  0  0  0  0  0  0  0  0  0  0  0
   14.6980  -11.7838    0.0000 O   0  0  0  0  0  0  0  0  0  0  0  0
   13.2690  -12.6087    0.0000 O   0  0  0  0  0  0  0  0  0  0  0  0
   11.8400  -11.7837    0.0000 C   0  0  0  0  0  0  0  0  0  0  0  0
   14.6980   -9.3087    0.0000 C   0  0  0  0  0  0  0  0  0  0  0  0
   15.4125   -9.7212    0.0000 C   0  0  0  0  0  0  0  0  0  0  0  0
   13.9836   -9.7212    0.0000 O   0  0  0  0  0  0  0  0  0  0  0  0
   15.4126   -4.7711    0.0000 C   0  0  1  0  0  0  0  0  0  0  0  0
   15.4126   -5.5962    0.0000 C   0  0  1  0  0  0  0  0  0  0  0  0
   14.6981   -4.3586    0.0000 O   0  0  0  0  0  0  0  0  0  0  0  0
   14.6981   -6.0087    0.0000 C   0  0  2  0  0  0  0  0  0  0  0  0
   13.9836   -4.7711    0.0000 C   0  0  1  0  0  0  0  0  0  0  0  0
   13.9836   -5.5962    0.0000 C   0  0  2  0  0  0  0  0  0  0  0  0
   16.1271   -4.3586    0.0000 O   0  0  0  0  0  0  0  0  0  0  0  0
   16.1271   -6.0087    0.0000 O   0  0  0  0  0  0  0  0  0  0  0  0
   13.2692   -6.0087    0.0000 O   0  0  0  0  0  0  0  0  0  0  0  0
   13.2692   -4.3586    0.0000 C   0  0  0  0  0  0  0  0  0  0  0  0
   12.5547   -4.7711    0.0000 O   0  0  0  0  0  0  0  0  0  0  0  0
  1  2  1  0  0  0  0
  1  3  1  0  0  0  0
  2  4  1  0  0  0  0
  3  5  1  0  0  0  0
  4  6  1  0  0  0  0
  5  6  1  0  0  0  0
  1  7  1  1  0  0  0
  2  8  1  6  0  0  0
  4  9  1  1  0  0  0
  6 10  1  6  0  0  0
  5 11  1  1  0  0  0
 12 11  1  0  0  0  0
 13 14  1  0  0  0  0
 13 15  1  0  0  0  0
 14 16  1  0  0  0  0
 15 17  1  0  0  0  0
 16 18  1  0  0  0  0
 17 18  1  0  0  0  0
 13 10  1  1  0  0  0
 14 19  1  6  0  0  0
 16 20  1  1  0  0  0
 18 21  1  1  0  0  0
 17 22  1  1  0  0  0
 23 22  1  0  0  0  0
 24 25  1  0  0  0  0
 24 26  1  0  0  0  0
 25 27  1  0  0  0  0
 26 28  1  0  0  0  0
 27 29  1  0  0  0  0
 28 29  1  0  0  0  0
 24  9  1  1  0  0  0
 25 30  1  1  0  0  0
 27 31  1  6  0  0  0
 29 32  1  6  0  0  0
 28 33  1  6  0  0  0
 35 34  1  0  0  0  0
 36 34  2  0  0  0  0
  8 34  1  0  0  0  0
 37 38  1  0  0  0  0
 37 39  1  0  0  0  0
 38 40  1  0  0  0  0
 39 41  1  0  0  0  0
 40 42  1  0  0  0  0
 41 42  1  0  0  0  0
 37 43  1  1  0  0  0
 38 44  1  6  0  0  0
 40  7  1  1  0  0  0
 42 45  1  1  0  0  0
 41 46  1  1  0  0  0
 47 46  1  0  0  0  0
M  END
> <ID>
CHEBI:62307

> <NAME>
beta-D-Galp-(1->4)-[alpha-L-Fucp-(1->3)]-beta-D-GlcpNAc-(1->3)-beta-D-Galp

> <DEFINITION>
A branched amino tetrasaccharide comprising β-D-galactose at the reducing end having a β-D-galactosyl-(1→4)-[α-L-fucosyl-(1→3)]-N-acetyl-β-D-glucosaminyl moiety attached at the 3-position.

> <STAR>
3

> <SYNONYM>
Le(X)Gal; Le(X); Lewis X antigen; Galbeta1,4[Fucalpha1,3]GlcNacbeta1,3Galbeta; beta-D-galactosyl-(1->4)-[alpha-L-fucosyl-(1->3)]-N-acetyl-beta-D-glucosaminyl-(1->3)-beta-D-galactose; alpha-L-fucopyranosyl-(1->3)-[beta-D-galactopyranosyl-(1->4)]-2-acetamido-2-deoxy-beta-D-glucopyranosyl-(1->3)-beta-D-galactopyranose

> <IUPAC_NAME>
6-deoxy-alpha-L-galactopyranosyl-(1->3)-[beta-D-galactopyranosyl-(1->4)]-2-acetamido-2-deoxy-beta-D-glucopyranosyl-(1->3)-beta-D-galactopyranose

> <FORMULA>
C26H45NO20

> <MASS>
691.63020

> <MONOISOTOPIC_MASS>
691.25349

> <CHARGE>
0

> <SMILES>
C[C@@H]1O[C@@H](O[C@@H]2[C@@H](NC(C)=O)[C@@H](O[C@H](CO)[C@H]2O[C@@H]2O[C@H](CO)[C@H](O)[C@H](O)[C@H]2O)O[C@@H]2[C@@H](O)[C@H](O)O[C@H](CO)[C@@H]2O)[C@@H](O)[C@H](O)[C@@H]1O

> <INCHI>
InChI=1S/C26H45NO20/c1-6-12(32)15(35)17(37)25(41-6)46-21-11(27-7(2)31)24(47-22-14(34)9(4-29)42-23(40)19(22)39)44-10(5-30)20(21)45-26-18(38)16(36)13(33)8(3-28)43-26/h6,8-26,28-30,32-40H,3-5H2,1-2H3,(H,27,31)/t6-,8+,9+,10+,11+,12+,13-,14-,15+,16-,17-,18+,19+,20+,21+,22-,23+,24-,25-,26-/m0/s1

> <INCHIKEY>
SFZBBUSDVJSDGR-XWFYHZIMSA-N

> <PUBMED_CITATION>
18773292; 24059473; 3042008

$$$$

Marvin  06151111122D          

 12 12  0  0  1  0            999 V2000
   11.5979   -4.2741    0.0000 C   0  0  0  0  0  0  0  0  0  0  0  0
   11.5979   -5.0991    0.0000 C   0  0  2  0  0  0  0  0  0  0  0  0
   10.8834   -3.8616    0.0000 O   0  0  0  0  0  0  0  0  0  0  0  0
   10.8834   -5.5116    0.0000 C   0  0  2  0  0  0  0  0  0  0  0  0
   10.1690   -4.2741    0.0000 C   0  0  1  0  0  0  0  0  0  0  0  0
   10.1690   -5.0991    0.0000 C   0  0  1  0  0  0  0  0  0  0  0  0
   12.3124   -3.8616    0.0000 O   0  0  0  0  0  0  0  0  0  0  0  0
   12.3124   -5.5116    0.0000 N   0  0  0  0  0  0  0  0  0  0  0  0
   10.8834   -6.3366    0.0000 O   0  0  0  0  0  0  0  0  0  0  0  0
    9.4545   -5.5116    0.0000 O   0  0  0  0  0  0  0  0  0  0  0  0
    9.4545   -3.8616    0.0000 C   0  0  0  0  0  0  0  0  0  0  0  0
    8.7400   -4.2741    0.0000 O   0  0  0  0  0  0  0  0  0  0  0  0
  1  2  1  0  0  0  0
  1  3  1  0  0  0  0
  2  4  1  0  0  0  0
  3  5  1  0  0  0  0
  4  6  1  0  0  0  0
  5  6  1  0  0  0  0
  1  7  1  0  0  0  0
  2  8  1  1  0  0  0
  4  9  1  1  0  0  0
  6 10  1  6  0  0  0
  5 11  1  1  0  0  0
 12 11  1  0  0  0  0
M  END
> <ID>
CHEBI:62325

> <NAME>
2-amino-2-deoxy-D-mannopyranose

> <DEFINITION>
A D-mannosamine in cyclic pyranose form.

> <STAR>
3

> <SYNONYM>
D-Mannosamine; 2-amino-2-deoxymannopyranose; 2-Amino-2-deoxy-D-mannose

> <IUPAC_NAME>
2-amino-2-deoxy-D-mannopyranose

> <FORMULA>
C6H13NO5

> <MASS>
179.17110

> <MONOISOTOPIC_MASS>
179.07937

> <CHARGE>
0

> <SMILES>
N[C@@H]1C(O)O[C@H](CO)[C@@H](O)[C@@H]1O

> <INCHI>
InChI=1S/C6H13NO5/c7-3-5(10)4(9)2(1-8)12-6(3)11/h2-6,8-11H,1,7H2/t2-,3+,4-,5-,6?/m1/s1

> <INCHIKEY>
MSWZFWKMSRAUBD-CBPJZXOFSA-N

> <CAS_REGISTRY_NUMBER>
14307-02-9

> <REAXYS_REGISTRY_NUMBER>
2042266

> <KEGG_COMPOUND_ACCESSION>
C03570

> <METACYC_ACCESSION>
D-Mannosamines

> <PUBMED_CITATION>
11733018; 15675802; 20045674; 7504304

$$$$

Marvin  06151115592D          

 44 47  0  0  1  0            999 V2000
   10.6202   -5.2307    0.0000 C   0  0  1  0  0  0  0  0  0  0  0  0
   10.6202   -6.0557    0.0000 C   0  0  1  0  0  0  0  0  0  0  0  0
    9.9058   -4.8182    0.0000 O   0  0  0  0  0  0  0  0  0  0  0  0
    9.9058   -6.4682    0.0000 C   0  0  2  0  0  0  0  0  0  0  0  0
    9.1914   -5.2307    0.0000 C   0  0  1  0  0  0  0  0  0  0  0  0
    9.1914   -6.0557    0.0000 C   0  0  2  0  0  0  0  0  0  0  0  0
   11.3348   -4.8182    0.0000 O   0  0  0  0  0  0  0  0  0  0  0  0
   11.3348   -6.4682    0.0000 O   0  0  0  0  0  0  0  0  0  0  0  0
    9.9058   -7.2931    0.0000 O   0  0  0  0  0  0  0  0  0  0  0  0
    8.4768   -6.4682    0.0000 O   0  0  0  0  0  0  0  0  0  0  0  0
    8.4768   -4.8182    0.0000 C   0  0  0  0  0  0  0  0  0  0  0  0
    7.7626   -5.2307    0.0000 O   0  0  0  0  0  0  0  0  0  0  0  0
    9.1914   -7.7056    0.0000 C   0  0  2  0  0  0  0  0  0  0  0  0
    9.1914   -8.5306    0.0000 C   0  0  1  0  0  0  0  0  0  0  0  0
    8.4768   -7.2931    0.0000 O   0  0  0  0  0  0  0  0  0  0  0  0
    8.4768   -8.9430    0.0000 C   0  0  2  0  0  0  0  0  0  0  0  0
    7.7626   -7.7056    0.0000 C   0  0  1  0  0  0  0  0  0  0  0  0
    7.7626   -8.5306    0.0000 C   0  0  2  0  0  0  0  0  0  0  0  0
    9.9058   -8.9430    0.0000 O   0  0  0  0  0  0  0  0  0  0  0  0
    8.4768   -9.7680    0.0000 O   0  0  0  0  0  0  0  0  0  0  0  0
    7.0480   -8.9430    0.0000 O   0  0  0  0  0  0  0  0  0  0  0  0
    7.0480   -7.2931    0.0000 C   0  0  0  0  0  0  0  0  0  0  0  0
    6.3335   -7.7056    0.0000 O   0  0  0  0  0  0  0  0  0  0  0  0
   12.0492   -7.7056    0.0000 O   0  0  0  0  0  0  0  0  0  0  0  0
   12.7636   -8.1181    0.0000 C   0  0  2  0  0  0  0  0  0  0  0  0
   12.0492   -6.8806    0.0000 C   0  0  2  0  0  0  0  0  0  0  0  0
   12.7636   -6.4681    0.0000 C   0  0  2  0  0  0  0  0  0  0  0  0
   13.4781   -6.8807    0.0000 C   0  0  1  0  0  0  0  0  0  0  0  0
   13.4781   -7.7057    0.0000 C   0  0  2  0  0  0  0  0  0  0  0  0
   12.7639   -5.6432    0.0000 O   0  0  0  0  0  0  0  0  0  0  0  0
   14.1925   -6.4682    0.0000 O   0  0  0  0  0  0  0  0  0  0  0  0
   14.1925   -8.1181    0.0000 O   0  0  0  0  0  0  0  0  0  0  0  0
   12.7636   -8.9431    0.0000 C   0  0  0  0  0  0  0  0  0  0  0  0
   12.7639   -2.3433    0.0000 O   0  0  0  0  0  0  0  0  0  0  0  0
   12.0493   -2.7558    0.0000 C   0  0  1  0  0  0  0  0  0  0  0  0
   12.0493   -3.5808    0.0000 C   0  0  1  0  0  0  0  0  0  0  0  0
   11.3348   -2.3433    0.0000 O   0  0  0  0  0  0  0  0  0  0  0  0
   11.3348   -3.9932    0.0000 C   0  0  2  0  0  0  0  0  0  0  0  0
   10.6204   -2.7558    0.0000 C   0  0  1  0  0  0  0  0  0  0  0  0
   10.6204   -3.5808    0.0000 C   0  0  2  0  0  0  0  0  0  0  0  0
   12.7639   -3.9932    0.0000 O   0  0  0  0  0  0  0  0  0  0  0  0
    9.9060   -3.9932    0.0000 O   0  0  0  0  0  0  0  0  0  0  0  0
    9.9060   -2.3433    0.0000 C   0  0  0  0  0  0  0  0  0  0  0  0
    9.1914   -2.7558    0.0000 O   0  0  0  0  0  0  0  0  0  0  0  0
  1  2  1  0  0  0  0
  1  3  1  0  0  0  0
  2  4  1  0  0  0  0
  3  5  1  0  0  0  0
  4  6  1  0  0  0  0
  5  6  1  0  0  0  0
  1  7  1  1  0  0  0
  2  8  1  6  0  0  0
  4  9  1  1  0  0  0
  6 10  1  1  0  0  0
  5 11  1  1  0  0  0
 12 11  1  0  0  0  0
 13 14  1  0  0  0  0
 13 15  1  0  0  0  0
 14 16  1  0  0  0  0
 15 17  1  0  0  0  0
 16 18  1  0  0  0  0
 17 18  1  0  0  0  0
 13  9  1  6  0  0  0
 14 19  1  6  0  0  0
 16 20  1  1  0  0  0
 18 21  1  1  0  0  0
 17 22  1  1  0  0  0
 23 22  1  0  0  0  0
 25 24  1  0  0  0  0
 26 24  1  0  0  0  0
 26  8  1  1  0  0  0
 26 27  1  0  0  0  0
 27 30  1  1  0  0  0
 27 28  1  0  0  0  0
 28 31  1  6  0  0  0
 28 29  1  0  0  0  0
 29 25  1  0  0  0  0
 29 32  1  6  0  0  0
 25 33  1  6  0  0  0
 35 36  1  0  0  0  0
 35 37  1  0  0  0  0
 36 38  1  0  0  0  0
 37 39  1  0  0  0  0
 38 40  1  0  0  0  0
 39 40  1  0  0  0  0
 35 34  1  1  0  0  0
 36 41  1  6  0  0  0
 38  7  1  1  0  0  0
 40 42  1  1  0  0  0
 39 43  1  1  0  0  0
 44 43  1  0  0  0  0
M  END
> <ID>
CHEBI:62334

> <NAME>
alpha-D-Galp-(1->3)-[alpha-L-Fucp-(1->2)]-beta-D-Galp-(1->3)-beta-D-Galp

> <DEFINITION>
A branched tetrasaccharide comprising D-galactose at the reducing end with an α-D-galactosyl-(1→3)-[α-L-fucosyl-(1→2)]-β-D-galactosyl moiety attached at the 3-position.

> <STAR>
3

> <SYNONYM>
alpha-L-Fucp-(1->2)-[alpha-D-Galp-(1->3)]-beta-D-Galp-(1->3)-beta-D-Galp; alpha-L-fucosyl-(1->2)-[alpha-D-galactosyl-(1->3)]-beta-D-galactosyl-(1->3)-beta-D-galactose; alpha-L-Fuc-(1->2)-[alpha-D-Gal-(1->3)]-beta-D-Gal-(1->3)-beta-D-Gal; alpha-D-galactosyl-(1->3)-[alpha-L-fucosyl-(1->2)]-beta-D-galactosyl-(1->3)-beta-D-galactose; alpha-D-Gal-(1->3)-[alpha-L-Fuc-(1->2)]-beta-D-Gal-(1->3)-beta-D-Gal; 6-deoxy-alpha-L-galactopyranosyl-(1->2)-[alpha-D-galactopyranosyl-(1->3)]-beta-D-galactopyranosyl-(1->3)-beta-D-galactopyranose

> <IUPAC_NAME>
alpha-L-fucopyranosyl-(1->2)-[alpha-D-galactopyranosyl-(1->3)]-beta-D-galactopyranosyl-(1->3)-beta-D-galactopyranose

> <FORMULA>
C24H42O20

> <MASS>
650.57830

> <MONOISOTOPIC_MASS>
650.22694

> <CHARGE>
0

> <SMILES>
C[C@@H]1O[C@@H](O[C@H]2[C@@H](O[C@H](CO)[C@H](O)[C@@H]2O[C@H]2O[C@H](CO)[C@H](O)[C@H](O)[C@H]2O)O[C@@H]2[C@@H](O)[C@H](O)O[C@H](CO)[C@@H]2O)[C@@H](O)[C@H](O)[C@@H]1O

> <INCHI>
InChI=1S/C24H42O20/c1-5-9(28)13(32)15(34)22(38-5)44-20-19(43-23-16(35)14(33)10(29)6(2-25)40-23)12(31)8(4-27)41-24(20)42-18-11(30)7(3-26)39-21(37)17(18)36/h5-37H,2-4H2,1H3/t5-,6+,7+,8+,9+,10-,11-,12-,13+,14-,15-,16+,17+,18-,19-,20+,21+,22-,23+,24-/m0/s1

> <INCHIKEY>
HGKGQTWQAOKUJU-JCMQLNSKSA-N

> <PUBMED_CITATION>
7521740

$$$$

Marvin  06151116152D          

 26 27  0  0  1  0            999 V2000
   11.3245   -3.4603    0.0000 C   0  0  1  0  0  0  0  0  0  0  0  0
   11.3245   -4.2852    0.0000 C   0  0  1  0  0  0  0  0  0  0  0  0
   10.6100   -3.0477    0.0000 O   0  0  0  0  0  0  0  0  0  0  0  0
   10.6100   -4.6977    0.0000 C   0  0  2  0  0  0  0  0  0  0  0  0
    9.8954   -3.4603    0.0000 C   0  0  1  0  0  0  0  0  0  0  0  0
    9.8954   -4.2852    0.0000 C   0  0  2  0  0  0  0  0  0  0  0  0
   12.0390   -3.0477    0.0000 O   0  0  0  0  0  0  0  0  0  0  0  0
   12.0390   -4.6977    0.0000 O   0  0  0  0  0  0  0  0  0  0  0  0
   10.6100   -5.5227    0.0000 O   0  0  0  0  0  0  0  0  0  0  0  0
    9.1809   -4.6977    0.0000 O   0  0  0  0  0  0  0  0  0  0  0  0
    9.1809   -3.0477    0.0000 C   0  0  0  0  0  0  0  0  0  0  0  0
    8.4666   -3.4603    0.0000 O   0  0  0  0  0  0  0  0  0  0  0  0
    9.8956   -5.9352    0.0000 C   0  0  2  0  0  0  0  0  0  0  0  0
    9.8956   -6.7602    0.0000 C   0  0  1  0  0  0  0  0  0  0  0  0
    9.1809   -5.5228    0.0000 O   0  0  0  0  0  0  0  0  0  0  0  0
    9.1811   -7.1727    0.0000 C   0  0  2  0  0  0  0  0  0  0  0  0
    8.4664   -5.9354    0.0000 C   0  0  1  0  0  0  0  0  0  0  0  0
    8.4666   -6.7602    0.0000 C   0  0  2  0  0  0  0  0  0  0  0  0
   10.6101   -7.1727    0.0000 N   0  0  0  0  0  0  0  0  0  0  0  0
    9.1809   -7.9977    0.0000 O   0  0  0  0  0  0  0  0  0  0  0  0
    7.7521   -7.1727    0.0000 O   0  0  0  0  0  0  0  0  0  0  0  0
    7.7519   -5.5229    0.0000 C   0  0  0  0  0  0  0  0  0  0  0  0
    7.0375   -5.9353    0.0000 O   0  0  0  0  0  0  0  0  0  0  0  0
   10.6101   -7.9976    0.0000 C   0  0  0  0  0  0  0  0  0  0  0  0
   11.3245   -8.4101    0.0000 O   0  0  0  0  0  0  0  0  0  0  0  0
    9.8956   -8.4102    0.0000 C   0  0  0  0  0  0  0  0  0  0  0  0
  1  2  1  0  0  0  0
  1  3  1  0  0  0  0
  2  4  1  0  0  0  0
  3  5  1  0  0  0  0
  4  6  1  0  0  0  0
  5  6  1  0  0  0  0
  1  7  1  1  0  0  0
  2  8  1  6  0  0  0
  4  9  1  1  0  0  0
  6 10  1  1  0  0  0
  5 11  1  1  0  0  0
 12 11  1  0  0  0  0
 13 14  1  0  0  0  0
 13 15  1  0  0  0  0
 14 16  1  0  0  0  0
 15 17  1  0  0  0  0
 16 18  1  0  0  0  0
 17 18  1  0  0  0  0
 14 19  1  6  0  0  0
 16 20  1  1  0  0  0
 18 21  1  1  0  0  0
 17 22  1  1  0  0  0
 23 22  1  0  0  0  0
 25 24  2  0  0  0  0
 26 24  1  0  0  0  0
 19 24  1  0  0  0  0
 13  9  1  6  0  0  0
M  END
> <ID>
CHEBI:62335

> <NAME>
alpha-D-GalpNAc-(1->3)-beta-D-Galp

> <DEFINITION>
An α-D-GalNAc-(1→3)-D-Gal having β-configuration at the reducing end anomeric centre.

> <STAR>
3

> <SYNONYM>
N-acetyl-alpha-D-galactosaminyl-(1->3)-beta-D-galactose; GalNAcalpha1-3Galbeta; GalNAca1-3Galb; alphaGalNAc(1->3)betaGal; alpha-D-GalNAc-(1->3)-beta-D-Gal; 3-O-(2-acetamido-2-deoxy-alpha-D-galactopyranosyl)-beta-D-galactopyranose

> <IUPAC_NAME>
2-acetamido-2-deoxy-alpha-D-galactopyranosyl-(1->3)-beta-D-galactopyranose

> <FORMULA>
C14H25NO11

> <MASS>
383.34840

> <MONOISOTOPIC_MASS>
383.14276

> <CHARGE>
0

> <SMILES>
CC(=O)N[C@@H]1[C@@H](O)[C@@H](O)[C@@H](CO)O[C@@H]1O[C@@H]1[C@@H](O)[C@H](O)O[C@H](CO)[C@@H]1O

> <INCHI>
InChI=1S/C14H25NO11/c1-4(18)15-7-10(21)8(19)5(2-16)25-14(7)26-12-9(20)6(3-17)24-13(23)11(12)22/h5-14,16-17,19-23H,2-3H2,1H3,(H,15,18)/t5-,6-,7-,8+,9+,10-,11-,12+,13-,14-/m1/s1

> <INCHIKEY>
IXWNIYCPCRHGAE-HRPFRAFISA-N

> <REAXYS_REGISTRY_NUMBER>
5635327

> <PUBMED_CITATION>
19443021; 25568069; 31537530; 7521740

$$$$

Marvin  06161110022D          

 40 42  0  0  1  0            999 V2000
    7.6503   -6.1676    0.0000 C   0  0  1  0  0  0  0  0  0  0  0  0
    7.6503   -6.9925    0.0000 C   0  0  1  0  0  0  0  0  0  0  0  0
    6.9358   -5.7550    0.0000 O   0  0  0  0  0  0  0  0  0  0  0  0
    6.9358   -7.4050    0.0000 C   0  0  2  0  0  0  0  0  0  0  0  0
    6.2212   -6.1676    0.0000 C   0  0  1  0  0  0  0  0  0  0  0  0
    6.2212   -6.9925    0.0000 C   0  0  2  0  0  0  0  0  0  0  0  0
    8.3648   -5.7550    0.0000 O   0  0  0  0  0  0  0  0  0  0  0  0
    8.3648   -7.4050    0.0000 N   0  0  0  0  0  0  0  0  0  0  0  0
    6.9358   -8.2300    0.0000 O   0  0  0  0  0  0  0  0  0  0  0  0
    5.5068   -7.4050    0.0000 O   0  0  0  0  0  0  0  0  0  0  0  0
    5.5068   -5.7550    0.0000 C   0  0  0  0  0  0  0  0  0  0  0  0
    4.7925   -6.1676    0.0000 O   0  0  0  0  0  0  0  0  0  0  0  0
    6.2215   -8.6425    0.0000 C   0  0  2  0  0  0  0  0  0  0  0  0
    6.2215   -9.4675    0.0000 C   0  0  1  0  0  0  0  0  0  0  0  0
    5.5068   -8.2301    0.0000 O   0  0  0  0  0  0  0  0  0  0  0  0
    5.5070   -9.8799    0.0000 C   0  0  2  0  0  0  0  0  0  0  0  0
    4.7923   -8.6427    0.0000 C   0  0  1  0  0  0  0  0  0  0  0  0
    4.7925   -9.4675    0.0000 C   0  0  2  0  0  0  0  0  0  0  0  0
    6.9360   -9.8799    0.0000 N   0  0  0  0  0  0  0  0  0  0  0  0
    5.5068  -10.7049    0.0000 O   0  0  0  0  0  0  0  0  0  0  0  0
    4.0780   -9.8799    0.0000 O   0  0  0  0  0  0  0  0  0  0  0  0
    4.0778   -8.2302    0.0000 C   0  0  0  0  0  0  0  0  0  0  0  0
    3.3634   -8.6426    0.0000 O   0  0  0  0  0  0  0  0  0  0  0  0
    6.9360  -10.7048    0.0000 C   0  0  0  0  0  0  0  0  0  0  0  0
    7.6503  -11.1173    0.0000 O   0  0  0  0  0  0  0  0  0  0  0  0
    6.2215  -11.1174    0.0000 C   0  0  0  0  0  0  0  0  0  0  0  0
    8.3648   -8.2299    0.0000 C   0  0  0  0  0  0  0  0  0  0  0  0
    9.0792   -8.6424    0.0000 O   0  0  0  0  0  0  0  0  0  0  0  0
    7.6503   -8.6425    0.0000 C   0  0  0  0  0  0  0  0  0  0  0  0
    9.0795   -3.6926    0.0000 C   0  0  2  0  0  0  0  0  0  0  0  0
    9.0795   -4.5176    0.0000 C   0  0  1  0  0  0  0  0  0  0  0  0
    8.3648   -3.2802    0.0000 O   0  0  0  0  0  0  0  0  0  0  0  0
    8.3650   -4.9301    0.0000 C   0  0  2  0  0  0  0  0  0  0  0  0
    7.6503   -3.6928    0.0000 C   0  0  1  0  0  0  0  0  0  0  0  0
    7.6505   -4.5176    0.0000 C   0  0  2  0  0  0  0  0  0  0  0  0
    9.7940   -4.9301    0.0000 O   0  0  0  0  0  0  0  0  0  0  0  0
    6.9360   -4.9301    0.0000 O   0  0  0  0  0  0  0  0  0  0  0  0
    6.9358   -3.2803    0.0000 C   0  0  0  0  0  0  0  0  0  0  0  0
    6.2215   -3.6927    0.0000 O   0  0  0  0  0  0  0  0  0  0  0  0
    9.7940   -3.2800    0.0000 O   0  0  0  0  0  0  0  0  0  0  0  0
  1  2  1  0  0  0  0
  1  3  1  0  0  0  0
  2  4  1  0  0  0  0
  3  5  1  0  0  0  0
  4  6  1  0  0  0  0
  5  6  1  0  0  0  0
  1  7  1  1  0  0  0
  2  8  1  6  0  0  0
  4  9  1  1  0  0  0
  6 10  1  1  0  0  0
  5 11  1  1  0  0  0
 12 11  1  0  0  0  0
 13 14  1  0  0  0  0
 13 15  1  0  0  0  0
 14 16  1  0  0  0  0
 15 17  1  0  0  0  0
 16 18  1  0  0  0  0
 17 18  1  0  0  0  0
 14 19  1  6  0  0  0
 16 20  1  1  0  0  0
 18 21  1  1  0  0  0
 17 22  1  1  0  0  0
 23 22  1  0  0  0  0
 25 24  2  0  0  0  0
 26 24  1  0  0  0  0
 19 24  1  0  0  0  0
 13  9  1  6  0  0  0
 28 27  2  0  0  0  0
 29 27  1  0  0  0  0
  8 27  1  0  0  0  0
 30 31  1  0  0  0  0
 30 32  1  0  0  0  0
 31 33  1  0  0  0  0
 32 34  1  0  0  0  0
 33 35  1  0  0  0  0
 34 35  1  0  0  0  0
 31 36  1  6  0  0  0
 33  7  1  1  0  0  0
 35 37  1  1  0  0  0
 34 38  1  1  0  0  0
 39 38  1  0  0  0  0
 30 40  1  6  0  0  0
M  END
> <ID>
CHEBI:62339

> <NAME>
alpha-D-GalpNAc-(1->3)-beta-D-GalpNAc-(1->3)-alpha-D-Galp

> <DEFINITION>
A linear amino trisaccharide consisting of two α-(1→3)-linked N-acetyl-galactosamine units, which are in turn linked β-(1→3) to an α-galactose unit at the reducing end.

> <STAR>
3

> <SYNONYM>
N-acetyl-alpha-D-galactosaminyl-(1->3)-N-acetyl-alpha-D-galactosaminyl-(1->3)-alpha-D-galactose; Forssman trisaccharide; alpha-D-GalNAc-(1->3)-beta-D-GalNAc-(1->3)-alpha-D-Gal

> <IUPAC_NAME>
2-acetamido-2-deoxy-alpha-D-galactopyranosyl-(1->3)-2-acetamido-2-deoxy-beta-D-galactopyranosyl-(1->3)-alpha-D-galactopyranose

> <FORMULA>
C22H38N2O16

> <MASS>
586.54090

> <MONOISOTOPIC_MASS>
586.22213

> <CHARGE>
0

> <SMILES>
CC(=O)N[C@@H]1[C@@H](O)[C@@H](O)[C@@H](CO)O[C@@H]1O[C@H]1[C@@H](O)[C@@H](CO)O[C@@H](O[C@@H]2[C@@H](O)[C@@H](O)O[C@H](CO)[C@@H]2O)[C@@H]1NC(C)=O

> <INCHI>
InChI=1S/C22H38N2O16/c1-6(28)23-11-16(33)13(30)8(3-25)37-21(11)39-18-12(24-7(2)29)22(38-10(5-27)14(18)31)40-19-15(32)9(4-26)36-20(35)17(19)34/h8-22,25-27,30-35H,3-5H2,1-2H3,(H,23,28)(H,24,29)/t8-,9-,10-,11-,12-,13+,14+,15+,16-,17-,18-,19+,20+,21-,22+/m1/s1

> <INCHIKEY>
YMHAMDVCLHZMOT-QZHFAHFZSA-N

> <PUBMED_CITATION>
7521740

$$$$

Marvin  06161111522D          

 47 50  0  0  1  0            999 V2000
    8.5071   -4.5263    0.0000 C   0  0  1  0  0  0  0  0  0  0  0  0
    8.5071   -5.3513    0.0000 C   0  0  1  0  0  0  0  0  0  0  0  0
    7.7927   -4.1138    0.0000 O   0  0  0  0  0  0  0  0  0  0  0  0
    7.7927   -5.7638    0.0000 C   0  0  2  0  0  0  0  0  0  0  0  0
    7.0783   -4.5263    0.0000 C   0  0  1  0  0  0  0  0  0  0  0  0
    7.0783   -5.3513    0.0000 C   0  0  2  0  0  0  0  0  0  0  0  0
    9.2216   -4.1138    0.0000 O   0  0  0  0  0  0  0  0  0  0  0  0
    9.2216   -5.7638    0.0000 O   0  0  0  0  0  0  0  0  0  0  0  0
    7.7927   -6.5887    0.0000 O   0  0  0  0  0  0  0  0  0  0  0  0
    6.3637   -5.7638    0.0000 O   0  0  0  0  0  0  0  0  0  0  0  0
    6.3637   -4.1138    0.0000 C   0  0  0  0  0  0  0  0  0  0  0  0
    5.6494   -4.5263    0.0000 O   0  0  0  0  0  0  0  0  0  0  0  0
    7.0783   -7.0012    0.0000 C   0  0  2  0  0  0  0  0  0  0  0  0
    7.0783   -7.8262    0.0000 C   0  0  1  0  0  0  0  0  0  0  0  0
    6.3637   -6.5887    0.0000 O   0  0  0  0  0  0  0  0  0  0  0  0
    6.3637   -8.2386    0.0000 C   0  0  2  0  0  0  0  0  0  0  0  0
    5.6494   -7.0012    0.0000 C   0  0  1  0  0  0  0  0  0  0  0  0
    5.6494   -7.8262    0.0000 C   0  0  2  0  0  0  0  0  0  0  0  0
    7.7927   -8.2386    0.0000 N   0  0  0  0  0  0  0  0  0  0  0  0
    6.3637   -9.0636    0.0000 O   0  0  0  0  0  0  0  0  0  0  0  0
    4.9349   -8.2386    0.0000 O   0  0  0  0  0  0  0  0  0  0  0  0
    4.9349   -6.5887    0.0000 C   0  0  0  0  0  0  0  0  0  0  0  0
    4.2203   -7.0012    0.0000 O   0  0  0  0  0  0  0  0  0  0  0  0
    9.9360   -7.0012    0.0000 O   0  0  0  0  0  0  0  0  0  0  0  0
   10.6504   -7.4137    0.0000 C   0  0  2  0  0  0  0  0  0  0  0  0
    9.9360   -6.1762    0.0000 C   0  0  2  0  0  0  0  0  0  0  0  0
   10.6504   -5.7637    0.0000 C   0  0  2  0  0  0  0  0  0  0  0  0
   11.3650   -6.1763    0.0000 C   0  0  1  0  0  0  0  0  0  0  0  0
   11.3650   -7.0013    0.0000 C   0  0  2  0  0  0  0  0  0  0  0  0
   10.6507   -4.9388    0.0000 O   0  0  0  0  0  0  0  0  0  0  0  0
   12.0794   -5.7638    0.0000 O   0  0  0  0  0  0  0  0  0  0  0  0
   12.0794   -7.4137    0.0000 O   0  0  0  0  0  0  0  0  0  0  0  0
   10.6504   -8.2387    0.0000 C   0  0  0  0  0  0  0  0  0  0  0  0
    7.7927   -9.0636    0.0000 C   0  0  0  0  0  0  0  0  0  0  0  0
    8.5072   -9.4760    0.0000 O   0  0  0  0  0  0  0  0  0  0  0  0
    7.0783   -9.4761    0.0000 C   0  0  0  0  0  0  0  0  0  0  0  0
   10.6507   -1.6389    0.0000 O   0  0  0  0  0  0  0  0  0  0  0  0
    9.9362   -2.0514    0.0000 C   0  0  1  0  0  0  0  0  0  0  0  0
    9.9362   -2.8764    0.0000 C   0  0  1  0  0  0  0  0  0  0  0  0
    9.2216   -1.6389    0.0000 O   0  0  0  0  0  0  0  0  0  0  0  0
    9.2216   -3.2888    0.0000 C   0  0  2  0  0  0  0  0  0  0  0  0
    8.5072   -2.0514    0.0000 C   0  0  1  0  0  0  0  0  0  0  0  0
    8.5072   -2.8764    0.0000 C   0  0  2  0  0  0  0  0  0  0  0  0
   10.6507   -3.2888    0.0000 O   0  0  0  0  0  0  0  0  0  0  0  0
    7.7928   -3.2888    0.0000 O   0  0  0  0  0  0  0  0  0  0  0  0
    7.7928   -1.6389    0.0000 C   0  0  0  0  0  0  0  0  0  0  0  0
    7.0782   -2.0514    0.0000 O   0  0  0  0  0  0  0  0  0  0  0  0
  1  2  1  0  0  0  0
  1  3  1  0  0  0  0
  2  4  1  0  0  0  0
  3  5  1  0  0  0  0
  4  6  1  0  0  0  0
  5  6  1  0  0  0  0
  1  7  1  1  0  0  0
  2  8  1  6  0  0  0
  4  9  1  1  0  0  0
  6 10  1  1  0  0  0
  5 11  1  1  0  0  0
 12 11  1  0  0  0  0
 13 14  1  0  0  0  0
 13 15  1  0  0  0  0
 14 16  1  0  0  0  0
 15 17  1  0  0  0  0
 16 18  1  0  0  0  0
 17 18  1  0  0  0  0
 13  9  1  6  0  0  0
 14 19  1  6  0  0  0
 16 20  1  1  0  0  0
 18 21  1  1  0  0  0
 17 22  1  1  0  0  0
 23 22  1  0  0  0  0
 25 24  1  0  0  0  0
 26 24  1  0  0  0  0
 26  8  1  1  0  0  0
 26 27  1  0  0  0  0
 27 30  1  1  0  0  0
 27 28  1  0  0  0  0
 28 31  1  6  0  0  0
 28 29  1  0  0  0  0
 29 25  1  0  0  0  0
 29 32  1  6  0  0  0
 25 33  1  6  0  0  0
 35 34  2  0  0  0  0
 36 34  1  0  0  0  0
 19 34  1  0  0  0  0
 38 39  1  0  0  0  0
 38 40  1  0  0  0  0
 39 41  1  0  0  0  0
 40 42  1  0  0  0  0
 41 43  1  0  0  0  0
 42 43  1  0  0  0  0
 38 37  1  1  0  0  0
 39 44  1  6  0  0  0
 41  7  1  1  0  0  0
 43 45  1  1  0  0  0
 42 46  1  1  0  0  0
 47 46  1  0  0  0  0
M  END
> <ID>
CHEBI:62341

> <NAME>
alpha-D-GalpNAc-(1->3)-[alpha-L-Fucp-(1->2)]-beta-D-Galp-(1->3)-beta-D-Galp

> <DEFINITION>
A branched amino tetrasaccharide consisting of β-D-galactose at the reducing end having an N-acetyl-α-D-galactosaminyl-(1→3)-[α-L-fucosyl-(1→2)]-β-D-galactosyl moiety attached at the 3-position.

> <STAR>
3

> <SYNONYM>
N-acetyl-alpha-D-galactosaminyl-(1->3)-[alpha-L-fucosyl-(1->2)]-beta-D-galactosyl-(1->3)-beta-D-galactose; alpha-D-GalNAc-(1->3)-[alpha-L-Fuc-(1->2)]-beta-D-Gal-(1->3)-beta-D-Gal; 2-acetamido-2-deoxy-alpha-D-galactopyranosyl-(1->3)-[6-deoxy-alpha-L-galactopyranosyl-(1->2)]-beta-D-galactopyranosyl-(1->3)-beta-D-galactopyranose

> <IUPAC_NAME>
2-acetamido-2-deoxy-alpha-D-galactopyranosyl-(1->3)-[alpha-L-fucopyranosyl-(1->2)]-beta-D-galactopyranosyl-(1->3)-D-galactopyranose

> <FORMULA>
C26H45NO20

> <MASS>
691.63020

> <MONOISOTOPIC_MASS>
691.25349

> <CHARGE>
0

> <SMILES>
C[C@@H]1O[C@@H](O[C@H]2[C@@H](O[C@H](CO)[C@H](O)[C@@H]2O[C@H]2O[C@H](CO)[C@H](O)[C@H](O)[C@H]2NC(C)=O)O[C@@H]2[C@@H](O)[C@H](O)O[C@H](CO)[C@@H]2O)[C@@H](O)[C@H](O)[C@@H]1O

> <INCHI>
InChI=1S/C26H45NO20/c1-6-12(32)17(37)18(38)25(41-6)47-22-21(46-24-11(27-7(2)31)16(36)13(33)8(3-28)43-24)15(35)10(5-30)44-26(22)45-20-14(34)9(4-29)42-23(40)19(20)39/h6,8-26,28-30,32-40H,3-5H2,1-2H3,(H,27,31)/t6-,8+,9+,10+,11+,12+,13-,14-,15-,16+,17+,18-,19+,20-,21-,22+,23+,24+,25-,26-/m0/s1

> <INCHIKEY>
MOIVXTCTXQHTFY-PPUAUKEVSA-N

> <PUBMED_CITATION>
7521740

$$$$

Marvin  06161112132D          

 40 42  0  0  1  0            999 V2000
    8.7751   -5.3675    0.0000 C   0  0  1  0  0  0  0  0  0  0  0  0
    8.7751   -6.1925    0.0000 C   0  0  1  0  0  0  0  0  0  0  0  0
    8.0606   -4.9550    0.0000 O   0  0  0  0  0  0  0  0  0  0  0  0
    8.0606   -6.6050    0.0000 C   0  0  2  0  0  0  0  0  0  0  0  0
    7.3462   -5.3675    0.0000 C   0  0  1  0  0  0  0  0  0  0  0  0
    7.3462   -6.1925    0.0000 C   0  0  2  0  0  0  0  0  0  0  0  0
    9.4896   -4.9550    0.0000 O   0  0  0  0  0  0  0  0  0  0  0  0
    9.4896   -6.6050    0.0000 O   0  0  0  0  0  0  0  0  0  0  0  0
    8.0606   -7.4300    0.0000 O   0  0  0  0  0  0  0  0  0  0  0  0
    6.6316   -6.6050    0.0000 O   0  0  0  0  0  0  0  0  0  0  0  0
    6.6316   -4.9550    0.0000 C   0  0  0  0  0  0  0  0  0  0  0  0
    5.9172   -5.3675    0.0000 O   0  0  0  0  0  0  0  0  0  0  0  0
    8.7751   -7.8425    0.0000 O   0  0  0  0  0  0  0  0  0  0  0  0
    8.7750   -8.6675    0.0000 C   0  0  2  0  0  0  0  0  0  0  0  0
    9.4896   -7.4300    0.0000 C   0  0  2  0  0  0  0  0  0  0  0  0
   10.2040   -7.8425    0.0000 C   0  0  2  0  0  0  0  0  0  0  0  0
   10.2040   -8.6675    0.0000 C   0  0  1  0  0  0  0  0  0  0  0  0
    9.4895   -9.0800    0.0000 C   0  0  2  0  0  0  0  0  0  0  0  0
   10.9184   -7.4301    0.0000 O   0  0  0  0  0  0  0  0  0  0  0  0
   10.9184   -9.0800    0.0000 O   0  0  0  0  0  0  0  0  0  0  0  0
    9.4895   -9.9049    0.0000 O   0  0  0  0  0  0  0  0  0  0  0  0
    8.0606   -9.0799    0.0000 C   0  0  0  0  0  0  0  0  0  0  0  0
   11.6330   -3.7175    0.0000 C   0  0  1  0  0  0  0  0  0  0  0  0
   11.6330   -4.5425    0.0000 C   0  0  1  0  0  0  0  0  0  0  0  0
   10.9185   -3.3050    0.0000 O   0  0  0  0  0  0  0  0  0  0  0  0
   10.9185   -4.9550    0.0000 C   0  0  2  0  0  0  0  0  0  0  0  0
   10.2040   -3.7175    0.0000 C   0  0  1  0  0  0  0  0  0  0  0  0
   10.2040   -4.5425    0.0000 C   0  0  1  0  0  0  0  0  0  0  0  0
   12.3475   -3.3050    0.0000 O   0  0  0  0  0  0  0  0  0  0  0  0
   12.3475   -4.9550    0.0000 N   0  0  0  0  0  0  0  0  0  0  0  0
   10.9185   -5.7800    0.0000 O   0  0  0  0  0  0  0  0  0  0  0  0
    9.4896   -3.3050    0.0000 C   0  0  0  0  0  0  0  0  0  0  0  0
    8.7751   -3.7175    0.0000 O   0  0  0  0  0  0  0  0  0  0  0  0
   12.3475   -5.7800    0.0000 C   0  0  0  0  0  0  0  0  0  0  0  0
   13.0620   -6.1926    0.0000 O   0  0  0  0  0  0  0  0  0  0  0  0
   11.6330   -6.1925    0.0000 C   0  0  0  0  0  0  0  0  0  0  0  0
    8.0606   -3.3050    0.0000 S   0  0  0  0  0  0  0  0  0  0  0  0
    7.6481   -4.0195    0.0000 O   0  0  0  0  0  0  0  0  0  0  0  0
    8.4731   -2.5905    0.0000 O   0  0  0  0  0  0  0  0  0  0  0  0
    7.3462   -2.8925    0.0000 O   0  0  0  0  0  0  0  0  0  0  0  0
  1  2  1  0  0  0  0
  1  3  1  0  0  0  0
  2  4  1  0  0  0  0
  3  5  1  0  0  0  0
  4  6  1  0  0  0  0
  5  6  1  0  0  0  0
  1  7  1  1  0  0  0
  2  8  1  6  0  0  0
  4  9  1  1  0  0  0
  6 10  1  1  0  0  0
  5 11  1  1  0  0  0
 12 11  1  0  0  0  0
 14 13  1  0  0  0  0
 15 13  1  0  0  0  0
 15  8  1  1  0  0  0
 15 16  1  0  0  0  0
 16 19  1  1  0  0  0
 16 17  1  0  0  0  0
 17 20  1  6  0  0  0
 17 18  1  0  0  0  0
 18 14  1  0  0  0  0
 18 21  1  6  0  0  0
 14 22  1  6  0  0  0
 23 24  1  0  0  0  0
 23 25  1  0  0  0  0
 24 26  1  0  0  0  0
 25 27  1  0  0  0  0
 26 28  1  0  0  0  0
 27 28  1  0  0  0  0
 23 29  1  1  0  0  0
 24 30  1  6  0  0  0
 26 31  1  1  0  0  0
 28  7  1  6  0  0  0
 27 32  1  1  0  0  0
 33 32  1  0  0  0  0
 35 34  2  0  0  0  0
 36 34  1  0  0  0  0
 30 34  1  0  0  0  0
 38 37  2  0  0  0  0
 39 37  2  0  0  0  0
 40 37  1  0  0  0  0
 33 37  1  0  0  0  0
M  END
> <ID>
CHEBI:62342

> <NAME>
alpha-L-Fucp-(1->2)-beta-D-Galp-(1->4)-beta-D-GlcpNAc6S

> <DEFINITION>
α-L-Fucp-(1→2)-β-D-Galp-(1→4)-D-GlcpNAc6S in which the configuration at the anomeric centre of the glucosamine residue is β.

> <STAR>
3

> <SYNONYM>
Fucalpha1-2Galbeta1-4(6S)GlcNAcbeta; Fuca1-2Galb1-4(6S)GlcNAcb; alpha-L-fucosyl-(1->2)-beta-D-galactosyl-(1->4)-N-acetyl-6-O-sulfo-beta-D-glucosamine; alpha-L-Fuc-(1->2)-beta-D-Gal-(1->4)-beta-D-GlcNAc6S; 6-deoxy-alpha-L-galactosyl-(1->2)-beta-D-galactosyl-(1->4)-2-acetamido-2-deoxy-6-O-sulfo-beta-D-glucose

> <IUPAC_NAME>
6-deoxy-alpha-L-galactopyranosyl-(1->2)-beta-D-galactopyranosyl-(1->4)-2-acetamido-2-deoxy-6-O-sulfo-beta-D-glucopyranose

> <FORMULA>
C20H35NO18S

> <MASS>
609.55300

> <MONOISOTOPIC_MASS>
609.15748

> <CHARGE>
0

> <SMILES>
C[C@@H]1O[C@@H](O[C@@H]2[C@@H](O)[C@@H](O)[C@@H](CO)O[C@H]2O[C@H]2[C@H](O)[C@@H](NC(C)=O)[C@H](O)O[C@@H]2COS(O)(=O)=O)[C@@H](O)[C@H](O)[C@@H]1O

> <INCHI>
InChI=1S/C20H35NO18S/c1-5-10(24)13(27)15(29)19(35-5)39-17-14(28)11(25)7(3-22)37-20(17)38-16-8(4-34-40(31,32)33)36-18(30)9(12(16)26)21-6(2)23/h5,7-20,22,24-30H,3-4H2,1-2H3,(H,21,23)(H,31,32,33)/t5-,7+,8+,9+,10+,11-,12+,13+,14-,15-,16+,17+,18+,19-,20-/m0/s1

> <INCHIKEY>
QUHSZZSWMMWHSX-QVPNGJTFSA-N

> <PUBMED_CITATION>
17381513; 25568069; 31537530

$$$$

Marvin  06161112222D          

 47 50  0  0  1  0            999 V2000
    6.5098   -4.7325    0.0000 C   0  0  1  0  0  0  0  0  0  0  0  0
    5.7953   -5.1451    0.0000 C   0  0  1  0  0  0  0  0  0  0  0  0
    6.5098   -3.9076    0.0000 O   0  0  0  0  0  0  0  0  0  0  0  0
    5.0809   -4.7326    0.0000 C   0  0  2  0  0  0  0  0  0  0  0  0
    5.7953   -3.4952    0.0000 C   0  0  1  0  0  0  0  0  0  0  0  0
    5.0809   -3.9077    0.0000 C   0  0  2  0  0  0  0  0  0  0  0  0
    5.7954   -5.9701    0.0000 O   0  0  0  0  0  0  0  0  0  0  0  0
    4.3665   -5.1451    0.0000 O   0  0  0  0  0  0  0  0  0  0  0  0
    4.3664   -3.4951    0.0000 O   0  0  0  0  0  0  0  0  0  0  0  0
    5.7953   -2.6701    0.0000 C   0  0  0  0  0  0  0  0  0  0  0  0
    5.0809   -2.2578    0.0000 O   0  0  0  0  0  0  0  0  0  0  0  0
    3.6521   -4.7327    0.0000 C   0  0  2  0  0  0  0  0  0  0  0  0
    2.9376   -5.1453    0.0000 C   0  0  1  0  0  0  0  0  0  0  0  0
    3.6520   -3.9076    0.0000 O   0  0  0  0  0  0  0  0  0  0  0  0
    2.2232   -4.7326    0.0000 C   0  0  2  0  0  0  0  0  0  0  0  0
    2.9376   -3.4953    0.0000 C   0  0  1  0  0  0  0  0  0  0  0  0
    2.2231   -3.9078    0.0000 C   0  0  2  0  0  0  0  0  0  0  0  0
    2.9377   -5.9701    0.0000 N   0  0  0  0  0  0  0  0  0  0  0  0
    1.5087   -5.1451    0.0000 O   0  0  0  0  0  0  0  0  0  0  0  0
    1.5087   -3.4953    0.0000 O   0  0  0  0  0  0  0  0  0  0  0  0
    2.9376   -2.6703    0.0000 C   0  0  0  0  0  0  0  0  0  0  0  0
    2.2230   -2.2578    0.0000 O   0  0  0  0  0  0  0  0  0  0  0  0
    5.0810   -7.2075    0.0000 O   0  0  0  0  0  0  0  0  0  0  0  0
    5.0810   -8.0325    0.0000 C   0  0  2  0  0  0  0  0  0  0  0  0
    5.7955   -6.7950    0.0000 C   0  0  2  0  0  0  0  0  0  0  0  0
    6.5099   -7.2074    0.0000 C   0  0  2  0  0  0  0  0  0  0  0  0
    6.5099   -8.0325    0.0000 C   0  0  1  0  0  0  0  0  0  0  0  0
    5.7955   -8.4451    0.0000 C   0  0  2  0  0  0  0  0  0  0  0  0
    7.2245   -6.7951    0.0000 O   0  0  0  0  0  0  0  0  0  0  0  0
    7.2244   -8.4450    0.0000 O   0  0  0  0  0  0  0  0  0  0  0  0
    5.7956   -9.2700    0.0000 O   0  0  0  0  0  0  0  0  0  0  0  0
    4.3665   -8.4450    0.0000 C   0  0  0  0  0  0  0  0  0  0  0  0
    2.2233   -6.3826    0.0000 C   0  0  0  0  0  0  0  0  0  0  0  0
    2.2234   -7.2076    0.0000 O   0  0  0  0  0  0  0  0  0  0  0  0
    1.5088   -5.9703    0.0000 C   0  0  0  0  0  0  0  0  0  0  0  0
    7.2243   -5.1450    0.0000 O   0  0  0  0  0  0  0  0  0  0  0  0
    8.6531   -5.9700    0.0000 O   0  0  0  0  0  0  0  0  0  0  0  0
   10.0822   -3.4951    0.0000 O   0  0  0  0  0  0  0  0  0  0  0  0
    9.3677   -3.9076    0.0000 C   0  0  1  0  0  0  0  0  0  0  0  0
    9.3677   -4.7326    0.0000 C   0  0  1  0  0  0  0  0  0  0  0  0
    8.6531   -3.4951    0.0000 O   0  0  0  0  0  0  0  0  0  0  0  0
    8.6531   -5.1450    0.0000 C   0  0  2  0  0  0  0  0  0  0  0  0
    7.9387   -3.9076    0.0000 C   0  0  1  0  0  0  0  0  0  0  0  0
    7.9387   -4.7326    0.0000 C   0  0  2  0  0  0  0  0  0  0  0  0
   10.0822   -5.1450    0.0000 O   0  0  0  0  0  0  0  0  0  0  0  0
    7.2243   -3.4951    0.0000 C   0  0  0  0  0  0  0  0  0  0  0  0
    7.2243   -2.6701    0.0000 O   0  0  0  0  0  0  0  0  0  0  0  0
  1  2  1  0  0  0  0
  1  3  1  0  0  0  0
  2  4  1  0  0  0  0
  3  5  1  0  0  0  0
  4  6  1  0  0  0  0
  5  6  1  0  0  0  0
  2  7  1  6  0  0  0
  4  8  1  1  0  0  0
  6  9  1  1  0  0  0
  5 10  1  1  0  0  0
 11 10  1  0  0  0  0
 12 13  1  0  0  0  0
 12 14  1  0  0  0  0
 13 15  1  0  0  0  0
 14 16  1  0  0  0  0
 15 17  1  0  0  0  0
 16 17  1  0  0  0  0
 12  8  1  6  0  0  0
 13 18  1  6  0  0  0
 15 19  1  1  0  0  0
 17 20  1  1  0  0  0
 16 21  1  1  0  0  0
 22 21  1  0  0  0  0
 24 23  1  0  0  0  0
 25 23  1  0  0  0  0
 25  7  1  1  0  0  0
 25 26  1  0  0  0  0
 26 29  1  1  0  0  0
 26 27  1  0  0  0  0
 27 30  1  6  0  0  0
 27 28  1  0  0  0  0
 28 24  1  0  0  0  0
 28 31  1  6  0  0  0
 24 32  1  6  0  0  0
 34 33  2  0  0  0  0
 35 33  1  0  0  0  0
 18 33  1  0  0  0  0
  1 36  1  1  0  0  0
 39 40  1  0  0  0  0
 39 41  1  0  0  0  0
 40 42  1  0  0  0  0
 41 43  1  0  0  0  0
 42 44  1  0  0  0  0
 43 44  1  0  0  0  0
 39 38  1  1  0  0  0
 40 45  1  6  0  0  0
 42 37  1  1  0  0  0
 44 36  1  1  0  0  0
 43 46  1  1  0  0  0
 46 47  1  0  0  0  0
M  END
> <ID>
CHEBI:62343

> <NAME>
alpha-D-GalpNAc-(1->3)-[alpha-L-Fucp-(1->2)]-beta-D-Galp-(1->4)-beta-D-Galp

> <DEFINITION>
A branched amino tetrasaccharide consisting of β-D-galactose at the reducing end having an N-acetyl-α-D-galactosaminyl-(1→3)-[α-L-fucosyl-(1→2)]-β-D-galactosyl moiety attached at the 4-position.

> <STAR>
3

> <SYNONYM>
N-acetyl-alpha-D-galactosaminyl-(1->3)-[alpha-L-fucosyl-(1->2)]-beta-D-galactosyl-(1->4)-beta-D-galactose; alpha-D-GalNAc-(1->3)-[alpha-L-Fuc-(1->2)]-beta-D-Gal-(1->4)-beta-D-Gal; 2-acetamido-2-deoxy-alpha-D-galactopyranosyl-(1->3)-[6-deoxy-alpha-L-galactopyranosyl-(1->2)]-beta-D-galactopyranosyl-(1->4)-beta-D-galactopyranose

> <IUPAC_NAME>
2-acetamido-2-deoxy-alpha-D-galactopyranosyl-(1->3)-[alpha-L-fucopyranosyl-(1->2)]-beta-D-galactopyranosyl-(1->4)-D-galactopyranose

> <FORMULA>
C26H45NO20

> <MASS>
691.63020

> <MONOISOTOPIC_MASS>
691.25349

> <CHARGE>
0

> <SMILES>
C[C@@H]1O[C@@H](O[C@H]2[C@@H](O[C@H](CO)[C@H](O)[C@@H]2O[C@H]2O[C@H](CO)[C@H](O)[C@H](O)[C@H]2NC(C)=O)O[C@@H]2[C@H](O)[C@@H](O)[C@H](O)O[C@@H]2CO)[C@@H](O)[C@H](O)[C@@H]1O

> <INCHI>
InChI=1S/C26H45NO20/c1-6-12(32)16(36)19(39)25(41-6)47-22-21(46-24-11(27-7(2)31)15(35)13(33)8(3-28)43-24)14(34)9(4-29)44-26(22)45-20-10(5-30)42-23(40)18(38)17(20)37/h6,8-26,28-30,32-40H,3-5H2,1-2H3,(H,27,31)/t6-,8+,9+,10+,11+,12+,13-,14-,15+,16+,17+,18+,19-,20-,21-,22+,23+,24+,25-,26-/m0/s1

> <INCHIKEY>
DKMKTGYNNHUIAK-APPRESNTSA-N

$$$$

Marvin  06161115002D          

 35 37  0  0  1  0            999 V2000
   19.0152   -3.1439    0.0000 C   0  0  1  0  0  0  0  0  0  0  0  0
   19.0152   -3.9689    0.0000 C   0  0  1  0  0  0  0  0  0  0  0  0
   18.3007   -2.7314    0.0000 O   0  0  0  0  0  0  0  0  0  0  0  0
   18.3007   -4.3814    0.0000 C   0  0  1  0  0  0  0  0  0  0  0  0
   17.5863   -3.1439    0.0000 C   0  0  2  0  0  0  0  0  0  0  0  0
   17.5863   -3.9689    0.0000 C   0  0  2  0  0  0  0  0  0  0  0  0
   19.7297   -2.7314    0.0000 O   0  0  0  0  0  0  0  0  0  0  0  0
   19.7297   -5.0871    0.0000 O   0  0  0  0  0  0  0  0  0  0  0  0
   18.3007   -5.2064    0.0000 O   0  0  0  0  0  0  0  0  0  0  0  0
   16.8718   -4.3814    0.0000 O   0  0  0  0  0  0  0  0  0  0  0  0
   16.8718   -2.7314    0.0000 C   0  0  0  0  0  0  0  0  0  0  0  0
   17.6336   -8.5809    0.0000 C   0  0  1  0  0  0  0  0  0  0  0  0
   17.6336   -9.4059    0.0000 C   0  0  1  0  0  0  0  0  0  0  0  0
   16.9191   -8.1684    0.0000 O   0  0  0  0  0  0  0  0  0  0  0  0
   16.9191   -9.8184    0.0000 C   0  0  1  0  0  0  0  0  0  0  0  0
   16.2046   -8.5809    0.0000 C   0  0  2  0  0  0  0  0  0  0  0  0
   16.2046   -9.4059    0.0000 C   0  0  2  0  0  0  0  0  0  0  0  0
   18.3481   -8.1684    0.0000 O   0  0  0  0  0  0  0  0  0  0  0  0
   18.3481   -9.8184    0.0000 O   0  0  0  0  0  0  0  0  0  0  0  0
   16.9190  -10.6434    0.0000 O   0  0  0  0  0  0  0  0  0  0  0  0
   15.4902   -9.8184    0.0000 O   0  0  0  0  0  0  0  0  0  0  0  0
   15.4902   -8.1684    0.0000 C   0  0  0  0  0  0  0  0  0  0  0  0
   19.0626   -6.1059    0.0000 C   0  0  1  0  0  0  0  0  0  0  0  0
   19.0626   -6.9309    0.0000 C   0  0  1  0  0  0  0  0  0  0  0  0
   18.3481   -5.6934    0.0000 O   0  0  0  0  0  0  0  0  0  0  0  0
   18.3481   -7.3434    0.0000 C   0  0  2  0  0  0  0  0  0  0  0  0
   17.6336   -6.1059    0.0000 C   0  0  1  0  0  0  0  0  0  0  0  0
   17.6336   -6.9309    0.0000 C   0  0  1  0  0  0  0  0  0  0  0  0
   19.7770   -7.3434    0.0000 N   0  0  0  0  0  0  0  0  0  0  0  0
   16.9191   -7.3434    0.0000 O   0  0  0  0  0  0  0  0  0  0  0  0
   16.9191   -5.6934    0.0000 C   0  0  0  0  0  0  0  0  0  0  0  0
   16.2047   -6.1059    0.0000 O   0  0  0  0  0  0  0  0  0  0  0  0
   19.7770   -8.1684    0.0000 C   0  0  0  0  0  0  0  0  0  0  0  0
   20.4915   -8.5809    0.0000 O   0  0  0  0  0  0  0  0  0  0  0  0
   19.0625   -8.5809    0.0000 C   0  0  0  0  0  0  0  0  0  0  0  0
  1  2  1  0  0  0  0
  1  3  1  0  0  0  0
  2  4  1  0  0  0  0
  3  5  1  0  0  0  0
  4  6  1  0  0  0  0
  5  6  1  0  0  0  0
  1  7  1  1  0  0  0
  2  8  1  6  0  0  0
  4  9  1  6  0  0  0
  6 10  1  1  0  0  0
  5 11  1  6  0  0  0
 12 13  1  0  0  0  0
 12 14  1  0  0  0  0
 13 15  1  0  0  0  0
 14 16  1  0  0  0  0
 15 17  1  0  0  0  0
 16 17  1  0  0  0  0
 12 18  1  1  0  0  0
 13 19  1  6  0  0  0
 15 20  1  6  0  0  0
 17 21  1  1  0  0  0
 16 22  1  6  0  0  0
 23 24  1  0  0  0  0
 23 25  1  0  0  0  0
 24 26  1  0  0  0  0
 25 27  1  0  0  0  0
 26 28  1  0  0  0  0
 27 28  1  0  0  0  0
 23  8  1  1  0  0  0
 24 29  1  6  0  0  0
 26 18  1  1  0  0  0
 28 30  1  6  0  0  0
 27 31  1  1  0  0  0
 32 31  1  0  0  0  0
 34 33  2  0  0  0  0
 35 33  1  0  0  0  0
 29 33  1  0  0  0  0
M  END
> <ID>
CHEBI:62347

> <NAME>
alpha-L-Rhap-(1->3)-beta-D-GlcpNAc-(1->2)-alpha-L-Rhap

> <DEFINITION>
An amino trisaccharide consisting of α-L-rhamnose at the reducing end having an α-L-rhamnosyl-(1→3)-N-acetyl-β-D-glucosaminyl moiety attached at the 2-position.

> <STAR>
3

> <SYNONYM>
alpha-L-rhamnosyl-(1->3)-N-acetyl-beta-D-glucosaminyl-(1->2)-alpha-L-rhamnose; alpha-L-Rha-(1->3)-beta-D-GlcNAc-(1->2)-alpha-L-Rha

> <IUPAC_NAME>
6-deoxy-alpha-L-mannopyranosyl-(1->3)-2-acetamido-2-deoxy-beta-D-glucopyranosyl-(1->2)-6-deoxy-alpha-L-mannopyranose

> <FORMULA>
C20H35NO14

> <MASS>
513.49020

> <MONOISOTOPIC_MASS>
513.20575

> <CHARGE>
0

> <SMILES>
C[C@@H]1O[C@@H](O)[C@H](O[C@@H]2O[C@H](CO)[C@@H](O)[C@H](O[C@@H]3O[C@@H](C)[C@H](O)[C@@H](O)[C@H]3O)[C@H]2NC(C)=O)[C@H](O)[C@H]1O

> <INCHI>
InChI=1S/C20H35NO14/c1-5-11(25)14(28)17(18(30)31-5)35-19-9(21-7(3)23)16(12(26)8(4-22)33-19)34-20-15(29)13(27)10(24)6(2)32-20/h5-6,8-20,22,24-30H,4H2,1-3H3,(H,21,23)/t5-,6-,8+,9+,10-,11-,12+,13+,14+,15+,16+,17+,18+,19-,20-/m0/s1

> <INCHIKEY>
CDTUTXPHBDOWEY-BJRZJUBRSA-N

> <PUBMED_CITATION>
7521740

$$$$

Marvin  06161115212D          

 26 27  0  0  1  0            999 V2000
    8.1053   -3.5146    0.0000 C   0  0  1  0  0  0  0  0  0  0  0  0
    8.1053   -4.3396    0.0000 C   0  0  1  0  0  0  0  0  0  0  0  0
    7.3908   -3.1021    0.0000 O   0  0  0  0  0  0  0  0  0  0  0  0
    7.3908   -4.7521    0.0000 C   0  0  2  0  0  0  0  0  0  0  0  0
    6.6764   -3.5146    0.0000 C   0  0  1  0  0  0  0  0  0  0  0  0
    6.6764   -4.3396    0.0000 C   0  0  2  0  0  0  0  0  0  0  0  0
    8.8198   -3.1021    0.0000 O   0  0  0  0  0  0  0  0  0  0  0  0
    8.8198   -5.4578    0.0000 O   0  0  0  0  0  0  0  0  0  0  0  0
    7.3908   -5.5771    0.0000 O   0  0  0  0  0  0  0  0  0  0  0  0
    5.9619   -4.7521    0.0000 O   0  0  0  0  0  0  0  0  0  0  0  0
    5.9619   -3.1021    0.0000 C   0  0  0  0  0  0  0  0  0  0  0  0
    5.2474   -3.5146    0.0000 O   0  0  0  0  0  0  0  0  0  0  0  0
    8.1053   -6.5707    0.0000 C   0  0  2  0  0  0  0  0  0  0  0  0
    8.1053   -7.3957    0.0000 C   0  0  1  0  0  0  0  0  0  0  0  0
    7.3908   -6.1582    0.0000 O   0  0  0  0  0  0  0  0  0  0  0  0
    7.3908   -7.8082    0.0000 C   0  0  2  0  0  0  0  0  0  0  0  0
    6.6764   -6.5707    0.0000 C   0  0  1  0  0  0  0  0  0  0  0  0
    6.6764   -7.3957    0.0000 C   0  0  2  0  0  0  0  0  0  0  0  0
    8.8198   -7.8082    0.0000 N   0  0  0  0  0  0  0  0  0  0  0  0
    7.3908   -8.6332    0.0000 O   0  0  0  0  0  0  0  0  0  0  0  0
    5.9619   -7.8082    0.0000 O   0  0  0  0  0  0  0  0  0  0  0  0
    5.9619   -6.1582    0.0000 C   0  0  0  0  0  0  0  0  0  0  0  0
    5.2474   -6.5707    0.0000 O   0  0  0  0  0  0  0  0  0  0  0  0
    8.8198   -8.6332    0.0000 C   0  0  0  0  0  0  0  0  0  0  0  0
    9.5343   -9.0457    0.0000 O   0  0  0  0  0  0  0  0  0  0  0  0
    8.1053   -9.0457    0.0000 C   0  0  0  0  0  0  0  0  0  0  0  0
  1  2  1  0  0  0  0
  1  3  1  0  0  0  0
  2  4  1  0  0  0  0
  3  5  1  0  0  0  0
  4  6  1  0  0  0  0
  5  6  1  0  0  0  0
  1  7  1  1  0  0  0
  2  8  1  6  0  0  0
  4  9  1  1  0  0  0
  6 10  1  1  0  0  0
  5 11  1  1  0  0  0
 12 11  1  0  0  0  0
 13 14  1  0  0  0  0
 13 15  1  0  0  0  0
 14 16  1  0  0  0  0
 15 17  1  0  0  0  0
 16 18  1  0  0  0  0
 17 18  1  0  0  0  0
 13  8  1  6  0  0  0
 14 19  1  6  0  0  0
 16 20  1  1  0  0  0
 18 21  1  1  0  0  0
 17 22  1  1  0  0  0
 23 22  1  0  0  0  0
 25 24  2  0  0  0  0
 26 24  1  0  0  0  0
 19 24  1  0  0  0  0
M  END
> <ID>
CHEBI:62348

> <NAME>
alpha-D-GalpNAc-(1->2)-beta-D-Galp

> <DEFINITION>
An amino disaccharide consisting of β-D-galactose having an N-acetyl-α-D-galactosaminyl residue attached at the 2-position.

> <STAR>
3

> <SYNONYM>
N-acetyl-alpha-D-galactosaminyl-(1->2)-beta-D-galactose; alphaGalNAc(1->2)betaGal; alpha-D-GalNAc-(1->2)-beta-D-Gal; 2-O-(2-acetamido-2-deoxy-alpha-D-galactopyranosyl)-beta-D-galactopyranose; 2-(acetylamino)-2-deoxy-alpha-D-galactopyranosyl-(1->2)-beta-D-galactopyranose

> <IUPAC_NAME>
2-acetamido-2-deoxy-alpha-D-galactopyranosyl-(1->2)-beta-D-galactopyranose

> <FORMULA>
C14H25NO11

> <MASS>
383.34840

> <MONOISOTOPIC_MASS>
383.14276

> <CHARGE>
0

> <SMILES>
CC(=O)N[C@@H]1[C@@H](O)[C@@H](O)[C@@H](CO)O[C@@H]1O[C@H]1[C@H](O)O[C@H](CO)[C@H](O)[C@@H]1O

> <INCHI>
InChI=1S/C14H25NO11/c1-4(18)15-7-10(21)8(19)6(3-17)25-14(7)26-12-11(22)9(20)5(2-16)24-13(12)23/h5-14,16-17,19-23H,2-3H2,1H3,(H,15,18)/t5-,6-,7-,8+,9+,10-,11+,12-,13-,14-/m1/s1

> <INCHIKEY>
KGSIOYQZUFTKHO-DVOZRKJFSA-N

> <PUBMED_CITATION>
7521740

$$$$

Marvin  06161115342D          

 26 27  0  0  1  0            999 V2000
    8.1053   -6.5707    0.0000 C   0  0  2  0  0  0  0  0  0  0  0  0
    8.1053   -7.3957    0.0000 C   0  0  1  0  0  0  0  0  0  0  0  0
    7.3908   -6.1582    0.0000 O   0  0  0  0  0  0  0  0  0  0  0  0
    7.3908   -7.8082    0.0000 C   0  0  2  0  0  0  0  0  0  0  0  0
    6.6764   -6.5707    0.0000 C   0  0  1  0  0  0  0  0  0  0  0  0
    6.6764   -7.3957    0.0000 C   0  0  2  0  0  0  0  0  0  0  0  0
    8.8198   -7.8082    0.0000 N   0  0  0  0  0  0  0  0  0  0  0  0
    7.3908   -8.6332    0.0000 O   0  0  0  0  0  0  0  0  0  0  0  0
    5.9619   -7.8082    0.0000 O   0  0  0  0  0  0  0  0  0  0  0  0
    5.9619   -6.1582    0.0000 C   0  0  0  0  0  0  0  0  0  0  0  0
    5.2474   -6.5707    0.0000 O   0  0  0  0  0  0  0  0  0  0  0  0
    8.8198   -8.6332    0.0000 C   0  0  0  0  0  0  0  0  0  0  0  0
    9.5343   -9.0457    0.0000 O   0  0  0  0  0  0  0  0  0  0  0  0
    8.1053   -9.0457    0.0000 C   0  0  0  0  0  0  0  0  0  0  0  0
    8.8198   -6.1582    0.0000 O   0  0  0  0  0  0  0  0  0  0  0  0
   10.9633   -4.9207    0.0000 C   0  0  1  0  0  0  0  0  0  0  0  0
   10.9633   -5.7457    0.0000 C   0  0  1  0  0  0  0  0  0  0  0  0
   10.2487   -4.5082    0.0000 O   0  0  0  0  0  0  0  0  0  0  0  0
   10.2487   -6.1582    0.0000 C   0  0  2  0  0  0  0  0  0  0  0  0
    9.5343   -4.9207    0.0000 C   0  0  1  0  0  0  0  0  0  0  0  0
    9.5343   -5.7457    0.0000 C   0  0  2  0  0  0  0  0  0  0  0  0
   11.6777   -4.5082    0.0000 O   0  0  0  0  0  0  0  0  0  0  0  0
   10.2487   -6.9832    0.0000 O   0  0  0  0  0  0  0  0  0  0  0  0
    8.8198   -4.5082    0.0000 C   0  0  0  0  0  0  0  0  0  0  0  0
    8.1053   -4.9207    0.0000 O   0  0  0  0  0  0  0  0  0  0  0  0
   11.6777   -6.1582    0.0000 O   0  0  0  0  0  0  0  0  0  0  0  0
  1  2  1  0  0  0  0
  1  3  1  0  0  0  0
  2  4  1  0  0  0  0
  3  5  1  0  0  0  0
  4  6  1  0  0  0  0
  5  6  1  0  0  0  0
  2  7  1  6  0  0  0
  4  8  1  1  0  0  0
  6  9  1  1  0  0  0
  5 10  1  1  0  0  0
 11 10  1  0  0  0  0
 13 12  2  0  0  0  0
 14 12  1  0  0  0  0
  7 12  1  0  0  0  0
  1 15  1  6  0  0  0
 16 17  1  0  0  0  0
 16 18  1  0  0  0  0
 17 19  1  0  0  0  0
 18 20  1  0  0  0  0
 19 21  1  0  0  0  0
 20 21  1  0  0  0  0
 16 22  1  1  0  0  0
 19 23  1  1  0  0  0
 21 15  1  1  0  0  0
 20 24  1  1  0  0  0
 25 24  1  0  0  0  0
 17 26  1  6  0  0  0
M  END
> <ID>
CHEBI:62349

> <NAME>
alpha-D-GalpNAc-(1->4)-beta-D-Galp

> <DEFINITION>
An amino disaccharide consisting of β-D-galactose having an N-acetyl-α-D-galactosaminyl residue attached at the 4-position.

> <STAR>
3

> <SYNONYM>
N-acetyl-alpha-D-galactosaminyl-(1->4)-beta-D-galactose; alphaGalNAc(1->4)betaGal; alpha-D-GalNAc-(1->4)-beta-D-Gal; 4-O-(2-acetamido-2-deoxy-alpha-D-galactopyranosyl)-beta-D-galactopyranose; 2-(acetylamino)-2-deoxy-alpha-D-galactopyranosyl-(1->4)-beta-D-galactopyranose

> <IUPAC_NAME>
2-acetamido-2-deoxy-alpha-D-galactopyranosyl-(1->4)-beta-D-galactopyranose

> <FORMULA>
C14H25NO11

> <MASS>
383.34840

> <MONOISOTOPIC_MASS>
383.14276

> <CHARGE>
0

> <SMILES>
CC(=O)N[C@@H]1[C@@H](O)[C@@H](O)[C@@H](CO)O[C@@H]1O[C@@H]1[C@H](O)[C@@H](O)[C@H](O)O[C@@H]1CO

> <INCHI>
InChI=1S/C14H25NO11/c1-4(18)15-7-9(20)8(19)5(2-16)25-14(7)26-12-6(3-17)24-13(23)11(22)10(12)21/h5-14,16-17,19-23H,2-3H2,1H3,(H,15,18)/t5-,6-,7-,8+,9-,10-,11-,12+,13-,14-/m1/s1

> <INCHIKEY>
DRHGSSXSNNHAAL-XFNHJMADSA-N

> <PUBMED_CITATION>
7521740

$$$$

Marvin  06161115362D          

 24 25  0  0  1  0            999 V2000
   17.5367   -3.3132    0.0000 C   0  0  0  0  0  0  0  0  0  0  0  0
   16.7521   -3.5681    0.0000 C   0  0  2  0  0  0  0  0  0  0  0  0
   17.7082   -2.5061    0.0000 O   0  0  0  0  0  0  0  0  0  0  0  0
   16.1390   -3.0161    0.0000 C   0  0  2  0  0  0  0  0  0  0  0  0
   17.0950   -1.9541    0.0000 C   0  0  1  0  0  0  0  0  0  0  0  0
   16.3105   -2.2091    0.0000 C   0  0  1  0  0  0  0  0  0  0  0  0
   18.1498   -3.8652    0.0000 O   0  0  0  0  0  0  0  0  0  0  0  0
   16.5806   -4.3751    0.0000 O   0  0  0  0  0  0  0  0  0  0  0  0
   15.3543   -3.2710    0.0000 O   0  0  0  0  0  0  0  0  0  0  0  0
   15.6973   -1.6571    0.0000 O   0  0  0  0  0  0  0  0  0  0  0  0
   17.2665   -1.1472    0.0000 C   0  0  0  0  0  0  0  0  0  0  0  0
   16.6534   -0.5952    0.0000 O   0  0  0  0  0  0  0  0  0  0  0  0
   14.4611   -4.6301    0.0000 C   0  0  2  0  0  0  0  0  0  0  0  0
   15.1285   -4.1452    0.0000 O   0  0  0  0  0  0  0  0  0  0  0  0
   14.7161   -5.4147    0.0000 C   0  0  1  0  0  0  0  0  0  0  0  0
   15.7960   -4.6301    0.0000 C   0  0  2  0  0  0  0  0  0  0  0  0
   15.5411   -5.4147    0.0000 C   0  0  2  0  0  0  0  0  0  0  0  0
   16.0261   -6.0821    0.0000 O   0  0  0  0  0  0  0  0  0  0  0  0
   14.2312   -6.0822    0.0000 O   0  0  0  0  0  0  0  0  0  0  0  0
   13.6765   -4.3752    0.0000 C   0  0  1  0  0  0  0  0  0  0  0  0
   13.0634   -4.9273    0.0000 C   0  0  0  0  0  0  0  0  0  0  0  0
   13.5049   -3.5683    0.0000 O   0  0  0  0  0  0  0  0  0  0  0  0
   12.2788   -4.6724    0.0000 O   0  0  0  0  0  0  0  0  0  0  0  0
   14.3901   -3.8255    0.0000 H   0  0  0  0  0  0  0  0  0  0  0  0
  1  2  1  0  0  0  0
  1  3  1  0  0  0  0
  2  4  1  0  0  0  0
  3  5  1  0  0  0  0
  4  6  1  0  0  0  0
  5  6  1  0  0  0  0
  1  7  1  0  0  0  0
  2  8  1  1  0  0  0
  4  9  1  1  0  0  0
  6 10  1  6  0  0  0
  5 11  1  1  0  0  0
 12 11  1  0  0  0  0
 13 14  1  0  0  0  0
 13 15  1  0  0  0  0
 14 16  1  0  0  0  0
 15 17  1  0  0  0  0
 16 17  1  0  0  0  0
 16  8  1  1  0  0  0
 17 18  1  6  0  0  0
 15 19  1  1  0  0  0
 20 13  1  0  0  0  0
 21 20  1  0  0  0  0
 20 22  1  1  0  0  0
 23 21  1  0  0  0  0
 13 24  1  1  0  0  0
M  END
> <ID>
CHEBI:62350

> <NAME>
beta-D-Galf-(1->2)-D-Manp

> <DEFINITION>
A glycosylmannose consisting of D-galactofuranose linked β(1→2) to D-mannopyranose.

> <STAR>
3

> <SYNONYM>
beta-D-Galf-1,2-D-Manp; 2-O-beta-D-galactofuranosyl-D-mannopyranose

> <IUPAC_NAME>
beta-D-galactofuranosyl-(1->2)-D-mannopyranose

> <FORMULA>
C12H22O11

> <MASS>
342.29650

> <MONOISOTOPIC_MASS>
342.11621

> <CHARGE>
0

> <SMILES>
[H][C@]1(O[C@@H](O[C@@H]2C(O)O[C@H](CO)[C@@H](O)[C@@H]2O)[C@H](O)[C@H]1O)[C@H](O)CO

> <INCHI>
InChI=1S/C12H22O11/c13-1-3(15)9-7(18)8(19)12(22-9)23-10-6(17)5(16)4(2-14)21-11(10)20/h3-20H,1-2H2/t3-,4-,5-,6+,7-,8-,9+,10+,11?,12+/m1/s1

> <INCHIKEY>
HYOWLYSRZAXTMZ-FAFRDLOXSA-N

> <PUBMED_CITATION>
2426444

$$$$

Marvin  06161116122D          

 25 26  0  0  1  0            999 V2000
   19.0063  -13.3824    0.0000 C   0  0  2  0  0  0  0  0  0  0  0  0
   19.6742  -12.8980    0.0000 O   0  0  0  0  0  0  0  0  0  0  0  0
   19.2607  -14.1672    0.0000 C   0  0  1  0  0  0  0  0  0  0  0  0
   20.3412  -13.3835    0.0000 C   0  0  2  0  0  0  0  0  0  0  0  0
   20.0857  -14.1679    0.0000 C   0  0  2  0  0  0  0  0  0  0  0  0
   21.1260  -13.1292    0.0000 O   0  0  0  0  0  0  0  0  0  0  0  0
   20.5701  -14.8358    0.0000 O   0  0  0  0  0  0  0  0  0  0  0  0
   18.7752  -14.8342    0.0000 O   0  0  0  0  0  0  0  0  0  0  0  0
   18.2219  -13.1268    0.0000 C   0  0  1  0  0  0  0  0  0  0  0  0
   17.6084  -13.6783    0.0000 C   0  0  0  0  0  0  0  0  0  0  0  0
   18.0511  -12.3197    0.0000 O   0  0  0  0  0  0  0  0  0  0  0  0
   16.8240  -13.4228    0.0000 O   0  0  0  0  0  0  0  0  0  0  0  0
   18.9253  -12.4049    0.0000 H   0  0  0  0  0  0  0  0  0  0  0  0
   23.3085  -13.0889    0.0000 C   0  0  2  0  0  0  0  0  0  0  0  0
   23.9763  -12.6045    0.0000 O   0  0  0  0  0  0  0  0  0  0  0  0
   23.5627  -13.8737    0.0000 C   0  0  1  0  0  0  0  0  0  0  0  0
   24.6433  -13.0900    0.0000 C   0  0  0  0  0  0  0  0  0  0  0  0
   24.3878  -13.8744    0.0000 C   0  0  2  0  0  0  0  0  0  0  0  0
   25.4281  -12.8357    0.0000 O   0  0  0  0  0  0  0  0  0  0  0  0
   24.8721  -14.5422    0.0000 O   0  0  0  0  0  0  0  0  0  0  0  0
   23.0773  -14.5407    0.0000 O   0  0  0  0  0  0  0  0  0  0  0  0
   22.5240  -12.8333    0.0000 C   0  0  1  0  0  0  0  0  0  0  0  0
   21.9105  -13.3848    0.0000 C   0  0  0  0  0  0  0  0  0  0  0  0
   22.3532  -12.0262    0.0000 O   0  0  0  0  0  0  0  0  0  0  0  0
   23.2274  -12.1113    0.0000 H   0  0  0  0  0  0  0  0  0  0  0  0
  1  2  1  0  0  0  0
  1  3  1  0  0  0  0
  2  4  1  0  0  0  0
  3  5  1  0  0  0  0
  4  5  1  0  0  0  0
  4  6  1  1  0  0  0
  5  7  1  6  0  0  0
  3  8  1  1  0  0  0
  9  1  1  0  0  0  0
 10  9  1  0  0  0  0
  9 11  1  1  0  0  0
 12 10  1  0  0  0  0
  1 13  1  1  0  0  0
 14 15  1  0  0  0  0
 14 16  1  0  0  0  0
 15 17  1  0  0  0  0
 16 18  1  0  0  0  0
 17 18  1  0  0  0  0
 17 19  1  0  0  0  0
 18 20  1  6  0  0  0
 16 21  1  1  0  0  0
 22 14  1  0  0  0  0
 23 22  1  0  0  0  0
 22 24  1  1  0  0  0
  6 23  1  0  0  0  0
 14 25  1  1  0  0  0
M  END
> <ID>
CHEBI:62354

> <NAME>
beta-D-Galf-(1->6)-D-Galf

> <DEFINITION>
A glycosylgalactose in which one D-galactofuranosyl residue is linked β(1→6) to a second D-galactofuranose residue.

> <STAR>
3

> <SYNONYM>
6-O-beta-D-galactofuranosyl-D-galactofuranose

> <IUPAC_NAME>
beta-D-galactofuranosyl-(1->6)-D-galactofuranose

> <FORMULA>
C12H22O11

> <MASS>
342.29650

> <MONOISOTOPIC_MASS>
342.11621

> <CHARGE>
0

> <SMILES>
[H][C@]1(O[C@@H](OC[C@@H](O)[C@]2([H])OC(O)[C@H](O)[C@H]2O)[C@H](O)[C@H]1O)[C@H](O)CO

> <INCHI>
InChI=1S/C12H22O11/c13-1-3(14)9-6(17)8(19)12(23-9)21-2-4(15)10-5(16)7(18)11(20)22-10/h3-20H,1-2H2/t3-,4-,5-,6-,7-,8-,9+,10+,11?,12-/m1/s1

> <INCHIKEY>
BFMJDJNGFYKYIF-VRLLEHBVSA-N

> <PUBMED_CITATION>
2426444

$$$$

Marvin  06161116212D          

 23 24  0  0  1  0            999 V2000
    8.0639   -2.9382    0.0000 C   0  0  1  0  0  0  0  0  0  0  0  0
    8.0639   -3.7632    0.0000 C   0  0  1  0  0  0  0  0  0  0  0  0
    7.3494   -2.5258    0.0000 O   0  0  0  0  0  0  0  0  0  0  0  0
    7.3494   -4.1757    0.0000 C   0  0  2  0  0  0  0  0  0  0  0  0
    6.6350   -2.9382    0.0000 C   0  0  1  0  0  0  0  0  0  0  0  0
    6.6350   -3.7632    0.0000 C   0  0  2  0  0  0  0  0  0  0  0  0
    8.7783   -2.5258    0.0000 O   0  0  0  0  0  0  0  0  0  0  0  0
    8.7783   -4.8814    0.0000 O   0  0  0  0  0  0  0  0  0  0  0  0
    7.3494   -5.0007    0.0000 O   0  0  0  0  0  0  0  0  0  0  0  0
    5.9205   -4.1757    0.0000 O   0  0  0  0  0  0  0  0  0  0  0  0
    5.9205   -2.5258    0.0000 C   0  0  0  0  0  0  0  0  0  0  0  0
    5.2060   -2.9382    0.0000 O   0  0  0  0  0  0  0  0  0  0  0  0
    8.0639   -5.9943    0.0000 C   0  0  1  0  0  0  0  0  0  0  0  0
    8.0639   -6.8192    0.0000 C   0  0  1  0  0  0  0  0  0  0  0  0
    7.3494   -5.5818    0.0000 O   0  0  0  0  0  0  0  0  0  0  0  0
    7.3494   -7.2317    0.0000 C   0  0  2  0  0  0  0  0  0  0  0  0
    6.6350   -5.9943    0.0000 C   0  0  1  0  0  0  0  0  0  0  0  0
    6.6350   -6.8192    0.0000 C   0  0  1  0  0  0  0  0  0  0  0  0
    8.7783   -7.2317    0.0000 O   0  0  0  0  0  0  0  0  0  0  0  0
    7.3494   -8.0567    0.0000 O   0  0  0  0  0  0  0  0  0  0  0  0
    5.9205   -7.2317    0.0000 O   0  0  0  0  0  0  0  0  0  0  0  0
    5.9205   -5.5818    0.0000 C   0  0  0  0  0  0  0  0  0  0  0  0
    5.2060   -5.9943    0.0000 O   0  0  0  0  0  0  0  0  0  0  0  0
  1  2  1  0  0  0  0
  1  3  1  0  0  0  0
  2  4  1  0  0  0  0
  3  5  1  0  0  0  0
  4  6  1  0  0  0  0
  5  6  1  0  0  0  0
  1  7  1  1  0  0  0
  2  8  1  6  0  0  0
  4  9  1  1  0  0  0
  6 10  1  1  0  0  0
  5 11  1  1  0  0  0
 12 11  1  0  0  0  0
 13 14  1  0  0  0  0
 13 15  1  0  0  0  0
 14 16  1  0  0  0  0
 15 17  1  0  0  0  0
 16 18  1  0  0  0  0
 17 18  1  0  0  0  0
 13  8  1  1  0  0  0
 14 19  1  6  0  0  0
 16 20  1  1  0  0  0
 18 21  1  6  0  0  0
 17 22  1  1  0  0  0
 23 22  1  0  0  0  0
M  END
> <ID>
CHEBI:62355

> <NAME>
beta-D-Glcp-(1->2)-beta-D-Galp

> <DEFINITION>
A glycosylgalactose consisting of β-D-galactose having an β-D-glucosyl residue attached at the 2-position.

> <STAR>
3

> <SYNONYM>
betaGlc(1->2)betaGal; beta-D-glucosyl-(1->2)-beta-D-galactose; beta-D-Glc-(1->2)-beta-D-Gal; 2-O-beta-D-glucopyranosyl-beta-D-galactopyranose

> <IUPAC_NAME>
beta-D-glucopyranosyl-(1->2)-beta-D-galactopyranose

> <FORMULA>
C12H22O11

> <MASS>
342.29650

> <MONOISOTOPIC_MASS>
342.11621

> <CHARGE>
0

> <SMILES>
OC[C@H]1O[C@@H](O)[C@H](O[C@@H]2O[C@H](CO)[C@@H](O)[C@H](O)[C@H]2O)[C@@H](O)[C@H]1O

> <INCHI>
InChI=1S/C12H22O11/c13-1-3-6(16)8(18)10(11(20)21-3)23-12-9(19)7(17)5(15)4(2-14)22-12/h3-20H,1-2H2/t3-,4-,5-,6+,7+,8+,9-,10-,11-,12+/m1/s1

> <INCHIKEY>
HIWPGCMGAMJNRG-MEYGDINOSA-N

> <REAXYS_REGISTRY_NUMBER>
1292762

> <PUBMED_CITATION>
7521740

$$$$

Marvin  06161116362D          

 23 24  0  0  1  0            999 V2000
    8.0639   -2.9382    0.0000 C   0  0  2  0  0  0  0  0  0  0  0  0
    8.0639   -3.7632    0.0000 C   0  0  2  0  0  0  0  0  0  0  0  0
    7.3494   -2.5258    0.0000 O   0  0  0  0  0  0  0  0  0  0  0  0
    7.3494   -4.1757    0.0000 C   0  0  2  0  0  0  0  0  0  0  0  0
    6.6350   -2.9382    0.0000 C   0  0  1  0  0  0  0  0  0  0  0  0
    6.6350   -3.7632    0.0000 C   0  0  1  0  0  0  0  0  0  0  0  0
    8.7783   -2.5258    0.0000 O   0  0  0  0  0  0  0  0  0  0  0  0
    8.7783   -4.8814    0.0000 O   0  0  0  0  0  0  0  0  0  0  0  0
    7.3494   -5.0007    0.0000 O   0  0  0  0  0  0  0  0  0  0  0  0
    5.9205   -4.1757    0.0000 O   0  0  0  0  0  0  0  0  0  0  0  0
    5.9205   -2.5258    0.0000 C   0  0  0  0  0  0  0  0  0  0  0  0
    5.2060   -2.9382    0.0000 O   0  0  0  0  0  0  0  0  0  0  0  0
    8.0639   -5.9943    0.0000 C   0  0  1  0  0  0  0  0  0  0  0  0
    8.0639   -6.8192    0.0000 C   0  0  1  0  0  0  0  0  0  0  0  0
    7.3494   -5.5818    0.0000 O   0  0  0  0  0  0  0  0  0  0  0  0
    7.3494   -7.2317    0.0000 C   0  0  2  0  0  0  0  0  0  0  0  0
    6.6350   -5.9943    0.0000 C   0  0  1  0  0  0  0  0  0  0  0  0
    6.6350   -6.8192    0.0000 C   0  0  1  0  0  0  0  0  0  0  0  0
    8.7783   -7.2317    0.0000 O   0  0  0  0  0  0  0  0  0  0  0  0
    7.3494   -8.0567    0.0000 O   0  0  0  0  0  0  0  0  0  0  0  0
    5.9205   -7.2317    0.0000 O   0  0  0  0  0  0  0  0  0  0  0  0
    5.9205   -5.5818    0.0000 C   0  0  0  0  0  0  0  0  0  0  0  0
    5.2060   -5.9943    0.0000 O   0  0  0  0  0  0  0  0  0  0  0  0
  1  2  1  0  0  0  0
  1  3  1  0  0  0  0
  2  4  1  0  0  0  0
  3  5  1  0  0  0  0
  4  6  1  0  0  0  0
  5  6  1  0  0  0  0
  1  7  1  6  0  0  0
  2  8  1  1  0  0  0
  4  9  1  1  0  0  0
  6 10  1  6  0  0  0
  5 11  1  1  0  0  0
 12 11  1  0  0  0  0
 13 14  1  0  0  0  0
 13 15  1  0  0  0  0
 14 16  1  0  0  0  0
 15 17  1  0  0  0  0
 16 18  1  0  0  0  0
 17 18  1  0  0  0  0
 13  8  1  1  0  0  0
 14 19  1  6  0  0  0
 16 20  1  1  0  0  0
 18 21  1  6  0  0  0
 17 22  1  1  0  0  0
 23 22  1  0  0  0  0
M  END
> <ID>
CHEBI:62356

> <NAME>
beta-D-Glcp-(1->2)-alpha-D-Manp

> <DEFINITION>
A D-glucosyl-D-mannose with the two components joined by an β-(1→2)-linkage and α-cofiguration at the reducing end anomeric centre.

> <STAR>
3

> <SYNONYM>
betaGlc(1->2)alphaMan; beta-D-glucosyl-(1->2)-alpha-D-mannose; beta-D-Glc-(1->2)-alpha-D-Man; 2-O-beta-D-glucopyranosyl-alpha-D-mannopyranose

> <IUPAC_NAME>
beta-D-glucopyranosyl-(1->2)-alpha-D-mannopyranose

> <FORMULA>
C12H22O11

> <MASS>
342.29650

> <MONOISOTOPIC_MASS>
342.11621

> <CHARGE>
0

> <SMILES>
OC[C@H]1O[C@H](O)[C@@H](O[C@@H]2O[C@H](CO)[C@@H](O)[C@H](O)[C@H]2O)[C@@H](O)[C@@H]1O

> <INCHI>
InChI=1S/C12H22O11/c13-1-3-6(16)8(18)10(11(20)21-3)23-12-9(19)7(17)5(15)4(2-14)22-12/h3-20H,1-2H2/t3-,4-,5-,6-,7+,8+,9-,10+,11+,12+/m1/s1

> <INCHIKEY>
HIWPGCMGAMJNRG-AUBCXCFLSA-N

> <REAXYS_REGISTRY_NUMBER>
1625924

$$$$

Marvin  06161116562D          

 23 24  0  0  1  0            999 V2000
   17.2120   -6.4094    0.0000 C   0  0  2  0  0  0  0  0  0  0  0  0
   17.2120   -7.2344    0.0000 C   0  0  2  0  0  0  0  0  0  0  0  0
   16.4976   -5.9970    0.0000 O   0  0  0  0  0  0  0  0  0  0  0  0
   16.4976   -7.6469    0.0000 C   0  0  2  0  0  0  0  0  0  0  0  0
   15.7831   -6.4094    0.0000 C   0  0  1  0  0  0  0  0  0  0  0  0
   15.7831   -7.2344    0.0000 C   0  0  1  0  0  0  0  0  0  0  0  0
   17.9265   -5.9970    0.0000 O   0  0  0  0  0  0  0  0  0  0  0  0
   17.9265   -7.6469    0.0000 O   0  0  0  0  0  0  0  0  0  0  0  0
   16.4976   -8.4719    0.0000 O   0  0  0  0  0  0  0  0  0  0  0  0
   15.0687   -7.6469    0.0000 O   0  0  0  0  0  0  0  0  0  0  0  0
   15.0687   -5.9970    0.0000 C   0  0  0  0  0  0  0  0  0  0  0  0
   14.3542   -6.4094    0.0000 O   0  0  0  0  0  0  0  0  0  0  0  0
   13.6396   -5.9970    0.0000 C   0  0  2  0  0  0  0  0  0  0  0  0
   12.9253   -6.4094    0.0000 C   0  0  2  0  0  0  0  0  0  0  0  0
   13.6397   -5.1719    0.0000 O   0  0  0  0  0  0  0  0  0  0  0  0
   12.2108   -5.9970    0.0000 C   0  0  2  0  0  0  0  0  0  0  0  0
   12.9253   -4.7594    0.0000 C   0  0  1  0  0  0  0  0  0  0  0  0
   12.2108   -5.1719    0.0000 C   0  0  1  0  0  0  0  0  0  0  0  0
   12.9253   -7.2344    0.0000 O   0  0  0  0  0  0  0  0  0  0  0  0
   11.4962   -6.4093    0.0000 O   0  0  0  0  0  0  0  0  0  0  0  0
   11.4963   -4.7594    0.0000 O   0  0  0  0  0  0  0  0  0  0  0  0
   12.9253   -3.9344    0.0000 C   0  0  0  0  0  0  0  0  0  0  0  0
   12.2108   -3.5219    0.0000 O   0  0  0  0  0  0  0  0  0  0  0  0
  1  2  1  0  0  0  0
  1  3  1  0  0  0  0
  2  4  1  0  0  0  0
  3  5  1  0  0  0  0
  4  6  1  0  0  0  0
  5  6  1  0  0  0  0
  1  7  1  6  0  0  0
  2  8  1  1  0  0  0
  4  9  1  1  0  0  0
  6 10  1  6  0  0  0
  5 11  1  1  0  0  0
 12 11  1  0  0  0  0
 13 14  1  0  0  0  0
 13 15  1  0  0  0  0
 14 16  1  0  0  0  0
 15 17  1  0  0  0  0
 16 18  1  0  0  0  0
 17 18  1  0  0  0  0
 13 12  1  6  0  0  0
 14 19  1  1  0  0  0
 16 20  1  1  0  0  0
 18 21  1  6  0  0  0
 17 22  1  1  0  0  0
 23 22  1  0  0  0  0
M  END
> <ID>
CHEBI:62357

> <NAME>
alpha-D-Manp-(1->6)-alpha-D-Manp

> <DEFINITION>
An α-D-Manp-(1→6)-D-Manp having α-configuration at the reducing end anomeric centre.

> <STAR>
3

> <SYNONYM>
alphaMan(1->6)alphaMan; alpha-D-mannosyl-(1->6)-alpha-D-mannose; alpha-D-Man-(1->6)-alpha-D-Man; 6-O-alpha-D-mannopyranosyl-alpha-D-mannopyranose; (1->6)-alpha-D-mannobiose

> <IUPAC_NAME>
alpha-D-mannopyranosyl-(1->6)-alpha-D-mannopyranose

> <FORMULA>
C12H22O11

> <MASS>
342.29650

> <MONOISOTOPIC_MASS>
342.11621

> <CHARGE>
0

> <SMILES>
OC[C@H]1O[C@H](OC[C@H]2O[C@H](O)[C@@H](O)[C@@H](O)[C@@H]2O)[C@@H](O)[C@@H](O)[C@@H]1O

> <INCHI>
InChI=1S/C12H22O11/c13-1-3-5(14)8(17)10(19)12(23-3)21-2-4-6(15)7(16)9(18)11(20)22-4/h3-20H,1-2H2/t3-,4-,5-,6-,7+,8+,9+,10+,11+,12+/m1/s1

> <INCHIKEY>
DLRVVLDZNNYCBX-ONPLHCRPSA-N

> <REAXYS_REGISTRY_NUMBER>
6278823

> <KEGG_COMPOUND_ACCESSION>
C01728

> <PUBMED_CITATION>
7521740

$$$$

Marvin  06171109472D          

 25 26  0  0  1  0            999 V2000
    7.9136  -20.9366    0.0000 C   0  0  2  0  0  0  0  0  0  0  0  0
    8.5814  -20.4522    0.0000 O   0  0  0  0  0  0  0  0  0  0  0  0
    8.1679  -21.7214    0.0000 C   0  0  1  0  0  0  0  0  0  0  0  0
    9.2484  -20.9377    0.0000 C   0  0  2  0  0  0  0  0  0  0  0  0
    8.9929  -21.7222    0.0000 C   0  0  2  0  0  0  0  0  0  0  0  0
   10.0333  -20.6835    0.0000 O   0  0  0  0  0  0  0  0  0  0  0  0
    9.4773  -22.3900    0.0000 O   0  0  0  0  0  0  0  0  0  0  0  0
    7.6824  -22.3885    0.0000 O   0  0  0  0  0  0  0  0  0  0  0  0
    7.1292  -20.6810    0.0000 C   0  0  1  0  0  0  0  0  0  0  0  0
    6.5156  -21.2326    0.0000 C   0  0  0  0  0  0  0  0  0  0  0  0
    6.9583  -19.8739    0.0000 O   0  0  0  0  0  0  0  0  0  0  0  0
    5.7312  -20.9770    0.0000 O   0  0  0  0  0  0  0  0  0  0  0  0
   12.8912  -20.6835    0.0000 C   0  0  2  0  0  0  0  0  0  0  0  0
   12.8912  -21.5085    0.0000 C   0  0  2  0  0  0  0  0  0  0  0  0
   12.1767  -20.2710    0.0000 O   0  0  0  0  0  0  0  0  0  0  0  0
   12.1767  -21.9210    0.0000 C   0  0  2  0  0  0  0  0  0  0  0  0
   11.4622  -20.6835    0.0000 C   0  0  1  0  0  0  0  0  0  0  0  0
   11.4622  -21.5085    0.0000 C   0  0  1  0  0  0  0  0  0  0  0  0
   13.6056  -20.2709    0.0000 O   0  0  0  0  0  0  0  0  0  0  0  0
   13.6056  -21.9210    0.0000 O   0  0  0  0  0  0  0  0  0  0  0  0
   12.1766  -22.7460    0.0000 O   0  0  0  0  0  0  0  0  0  0  0  0
   10.7478  -21.9210    0.0000 O   0  0  0  0  0  0  0  0  0  0  0  0
   10.7478  -20.2710    0.0000 C   0  0  0  0  0  0  0  0  0  0  0  0
   14.3202  -20.6834    0.0000 C   0  0  0  0  0  0  0  0  0  0  0  0
    7.8624  -20.0982    0.0000 H   0  0  0  0  0  0  0  0  0  0  0  0
  1  2  1  0  0  0  0
  1  3  1  0  0  0  0
  2  4  1  0  0  0  0
  3  5  1  0  0  0  0
  4  5  1  0  0  0  0
  4  6  1  1  0  0  0
  5  7  1  6  0  0  0
  3  8  1  1  0  0  0
  9  1  1  0  0  0  0
 10  9  1  0  0  0  0
  9 11  1  1  0  0  0
 12 10  1  0  0  0  0
 13 14  1  0  0  0  0
 13 15  1  0  0  0  0
 14 16  1  0  0  0  0
 15 17  1  0  0  0  0
 16 18  1  0  0  0  0
 17 18  1  0  0  0  0
 13 19  1  6  0  0  0
 14 20  1  1  0  0  0
 16 21  1  1  0  0  0
 18 22  1  6  0  0  0
 17 23  1  1  0  0  0
  6 23  1  0  0  0  0
 19 24  1  0  0  0  0
  1 25  1  1  0  0  0
M  END
> <ID>
CHEBI:62358

> <NAME>
beta-D-Galf-(1->6)-alpha-D-Manp-OMe

> <DEFINITION>
The methyl glycoside of the disaccharide β-D-galactofuranosyl-(1→6)-α-D-mannose.

> <STAR>
3

> <SYNONYM>
methyl 6-O-beta-D-galactofuranosyl-beta-D-mannopyranoside

> <IUPAC_NAME>
methyl beta-D-galactopyranosyl-(1->6)-alpha-D-mannopyranoside

> <FORMULA>
C13H24O11

> <MASS>
356.32310

> <MONOISOTOPIC_MASS>
356.13186

> <CHARGE>
0

> <SMILES>
[H][C@]1(O[C@@H](OC[C@H]2O[C@H](OC)[C@@H](O)[C@@H](O)[C@@H]2O)[C@H](O)[C@H]1O)[C@H](O)CO

> <INCHI>
InChI=1S/C13H24O11/c1-21-12-9(19)7(17)6(16)5(23-12)3-22-13-10(20)8(18)11(24-13)4(15)2-14/h4-20H,2-3H2,1H3/t4-,5-,6-,7+,8-,9+,10-,11+,12+,13-/m1/s1

> <INCHIKEY>
ZJTLGSVUBMBDCN-KUDKUMLUSA-N

> <PUBMED_CITATION>
2426444

$$$$

Marvin  06171110482D          

 25 26  0  0  1  0            999 V2000
    7.8838  -14.0682    0.0000 C   0  0  2  0  0  0  0  0  0  0  0  0
    8.5516  -13.5838    0.0000 O   0  0  0  0  0  0  0  0  0  0  0  0
    8.1380  -14.8530    0.0000 C   0  0  1  0  0  0  0  0  0  0  0  0
    9.2186  -14.0694    0.0000 C   0  0  2  0  0  0  0  0  0  0  0  0
    8.9630  -14.8537    0.0000 C   0  0  2  0  0  0  0  0  0  0  0  0
   10.0035  -13.8150    0.0000 O   0  0  0  0  0  0  0  0  0  0  0  0
    9.4474  -15.5216    0.0000 O   0  0  0  0  0  0  0  0  0  0  0  0
    7.6526  -15.5200    0.0000 O   0  0  0  0  0  0  0  0  0  0  0  0
    7.0993  -13.8126    0.0000 C   0  0  1  0  0  0  0  0  0  0  0  0
    6.4858  -14.3642    0.0000 C   0  0  0  0  0  0  0  0  0  0  0  0
    6.9284  -13.0055    0.0000 O   0  0  0  0  0  0  0  0  0  0  0  0
    5.7014  -14.1086    0.0000 O   0  0  0  0  0  0  0  0  0  0  0  0
   10.7180  -11.7525    0.0000 C   0  0  2  0  0  0  0  0  0  0  0  0
   10.7180  -12.5775    0.0000 C   0  0  2  0  0  0  0  0  0  0  0  0
   10.0035  -11.3400    0.0000 O   0  0  0  0  0  0  0  0  0  0  0  0
   10.0035  -12.9900    0.0000 C   0  0  2  0  0  0  0  0  0  0  0  0
    9.2890  -11.7525    0.0000 C   0  0  1  0  0  0  0  0  0  0  0  0
    9.2890  -12.5775    0.0000 C   0  0  1  0  0  0  0  0  0  0  0  0
   11.4325  -11.3400    0.0000 O   0  0  0  0  0  0  0  0  0  0  0  0
   11.4325  -12.9900    0.0000 O   0  0  0  0  0  0  0  0  0  0  0  0
    8.5745  -12.9900    0.0000 O   0  0  0  0  0  0  0  0  0  0  0  0
    8.5745  -11.3400    0.0000 C   0  0  0  0  0  0  0  0  0  0  0  0
    7.8601  -11.7525    0.0000 O   0  0  0  0  0  0  0  0  0  0  0  0
   12.1469  -11.7525    0.0000 C   0  0  0  0  0  0  0  0  0  0  0  0
    7.7629  -13.2398    0.0000 H   0  0  0  0  0  0  0  0  0  0  0  0
  1  2  1  0  0  0  0
  1  3  1  0  0  0  0
  2  4  1  0  0  0  0
  3  5  1  0  0  0  0
  4  5  1  0  0  0  0
  4  6  1  1  0  0  0
  5  7  1  6  0  0  0
  3  8  1  1  0  0  0
  9  1  1  0  0  0  0
 10  9  1  0  0  0  0
  9 11  1  1  0  0  0
 12 10  1  0  0  0  0
 13 14  1  0  0  0  0
 13 15  1  0  0  0  0
 14 16  1  0  0  0  0
 15 17  1  0  0  0  0
 16 18  1  0  0  0  0
 17 18  1  0  0  0  0
 13 19  1  6  0  0  0
 14 20  1  1  0  0  0
 16  6  1  1  0  0  0
 18 21  1  6  0  0  0
 17 22  1  1  0  0  0
 23 22  1  0  0  0  0
 19 24  1  0  0  0  0
  1 25  1  1  0  0  0
M  END
> <ID>
CHEBI:62359

> <NAME>
beta-D-Galf-(1->3)-alpha-D-Manp-OMe

> <DEFINITION>
The methyl glycoside of the disaccharide β-D-galactofuranosyl-(1→3)-α-D-mannose.

> <STAR>
3

> <SYNONYM>
methyl 3-O-beta-D-galactofuranosyl-beta-D-mannopyranoside

> <IUPAC_NAME>
methyl beta-D-galactopyranosyl-(1->3)-alpha-D-mannopyranoside

> <FORMULA>
C13H24O11

> <MASS>
356.32310

> <MONOISOTOPIC_MASS>
356.13186

> <CHARGE>
0

> <SMILES>
[H][C@]1(O[C@@H](O[C@H]2[C@H](O)[C@@H](CO)O[C@H](OC)[C@H]2O)[C@H](O)[C@H]1O)[C@H](O)CO

> <INCHI>
InChI=1S/C13H24O11/c1-21-12-9(20)11(6(17)5(3-15)22-12)24-13-8(19)7(18)10(23-13)4(16)2-14/h4-20H,2-3H2,1H3/t4-,5-,6-,7-,8-,9+,10+,11+,12+,13+/m1/s1

> <INCHIKEY>
SJPKORZTWJPIRJ-DIKRJWEXSA-N

> <REAXYS_REGISTRY_NUMBER>
5087879

> <PUBMED_CITATION>
2426444

$$$$

Marvin  06171110172D          

 37 39  0  0  1  0            999 V2000
   18.8729  -15.8430    0.0000 C   0  0  0  0  0  0  0  0  0  0  0  0
   20.0217  -15.1727    0.0000 O   0  0  0  0  0  0  0  0  0  0  0  0
   18.8729  -17.1929    0.0000 C   0  0  0  0  0  0  0  0  0  0  0  0
   20.0271  -17.8525    0.0000 S   0  0  0  0  0  0  0  0  0  0  0  0
   17.7356  -17.8432    0.0000 C   0  0  0  0  0  0  0  0  0  0  0  0
   17.7469  -19.1731    0.0000 O   0  0  0  0  0  0  0  0  0  0  0  0
   16.5754  -17.1835    0.0000 C   0  0  0  0  0  0  0  0  0  0  0  0
   15.4267  -17.8538    0.0000 O   0  0  0  0  0  0  0  0  0  0  0  0
   16.5527  -15.8736    0.0000 C   0  0  0  0  0  0  0  0  0  0  0  0
   17.7128  -15.1833    0.0000 O   0  0  0  0  0  0  0  0  0  0  0  0
   15.4126  -15.2252    0.0000 C   0  0  0  0  0  0  0  0  0  0  0  0
   14.2552  -15.8641    0.0000 O   0  0  0  0  0  0  0  0  0  0  0  0
   21.1678  -15.8318    0.0000 C   0  0  0  0  0  0  0  0  0  0  0  0
   22.3216  -15.1588    0.0000 C   0  0  0  0  0  0  0  0  0  0  0  0
   20.0230  -19.1825    0.0000 C   0  0  0  0  0  0  0  0  0  0  0  0
   21.1755  -19.8464    0.0000 C   0  0  0  0  0  0  0  0  0  0  0  0
   22.3519  -19.1689    0.0000 O   0  0  0  0  0  0  0  0  0  0  0  0
   21.1715  -21.1764    0.0000 C   0  0  0  0  0  0  0  0  0  0  0  0
   22.3239  -21.8403    0.0000 O   0  0  0  0  0  0  0  0  0  0  0  0
   20.0349  -21.8310    0.0000 C   0  0  0  0  0  0  0  0  0  0  0  0
   20.0309  -23.1610    0.0000 O   0  0  0  0  0  0  0  0  0  0  0  0
   18.8825  -21.1671    0.0000 C   0  0  0  0  0  0  0  0  0  0  0  0
   18.8865  -19.8371    0.0000 O   0  0  0  0  0  0  0  0  0  0  0  0
   17.7260  -21.8332    0.0000 C   0  0  0  0  0  0  0  0  0  0  0  0
   17.7247  -23.1518    0.0000 O   0  0  0  0  0  0  0  0  0  0  0  0
   23.4763  -15.8186    0.0000 C   0  0  0  0  0  0  0  0  0  0  0  0
   23.5162  -19.8201    0.0000 C   0  0  0  0  0  0  0  0  0  0  0  0
   24.6624  -19.1374    0.0000 C   0  0  0  0  0  0  0  0  0  0  0  0
   24.6442  -17.8034    0.0000 O   0  0  0  0  0  0  0  0  0  0  0  0
   25.8267  -19.7886    0.0000 C   0  0  0  0  0  0  0  0  0  0  0  0
   26.9729  -19.1059    0.0000 O   0  0  0  0  0  0  0  0  0  0  0  0
   25.8449  -21.1225    0.0000 C   0  0  0  0  0  0  0  0  0  0  0  0
   27.0092  -21.7738    0.0000 O   0  0  0  0  0  0  0  0  0  0  0  0
   24.6987  -21.8053    0.0000 C   0  0  0  0  0  0  0  0  0  0  0  0
   23.5344  -21.1540    0.0000 O   0  0  0  0  0  0  0  0  0  0  0  0
   24.7169  -23.1392    0.0000 C   0  0  0  0  0  0  0  0  0  0  0  0
   25.8812  -23.7905    0.0000 O   0  0  0  0  0  0  0  0  0  0  0  0
  1  2  1  1  0  0  0
  3  1  1  0  0  0  0
 10  1  1  0  0  0  0
  3  4  1  1  0  0  0
  5  3  1  0  0  0  0
  5  6  1  1  0  0  0
  7  5  1  0  0  0  0
  7  8  1  6  0  0  0
  9  7  1  0  0  0  0
 10  9  1  0  0  0  0
  9 11  1  1  0  0  0
 12 11  1  0  0  0  0
  2 13  1  0  0  0  0
 13 14  1  0  0  0  0
 15  4  1  1  0  0  0
 16 15  1  0  0  0  0
 23 15  1  0  0  0  0
 16 17  1  1  0  0  0
 18 16  1  0  0  0  0
 18 19  1  1  0  0  0
 20 18  1  0  0  0  0
 20 21  1  6  0  0  0
 22 20  1  0  0  0  0
 23 22  1  0  0  0  0
 22 24  1  1  0  0  0
 25 24  1  0  0  0  0
 14 26  1  0  0  0  0
 27 17  1  1  0  0  0
 28 27  1  0  0  0  0
 35 27  1  0  0  0  0
 28 29  1  1  0  0  0
 30 28  1  0  0  0  0
 30 31  1  1  0  0  0
 32 30  1  0  0  0  0
 32 33  1  6  0  0  0
 34 32  1  0  0  0  0
 35 34  1  0  0  0  0
 34 36  1  1  0  0  0
 37 36  1  0  0  0  0
M  END
> <ID>
CHEBI:62360

> <NAME>
propyl beta-D-mannopyranosyl-(1->2)-beta-D-mannopyranosyl-(1->2)-2-thio-beta-D-mannopyranoside

> <DEFINITION>
A glycoside that is the n-propyl glycoside of β-D-mannopyranosyl-(1→2)-β-D-mannopyranosyl-(1→2)-2-thio-β-D-mannopyranose.

> <STAR>
3

> <SYNONYM>
propyl beta-D-mannopyranosyl-(1->2)-1-thio-beta-D-mannopyranosyl-(1->2)-2-deoxy-2-thio-beta-D-mannopyranoside; propyl (beta-D-mannopyranosyl)-(1->2)-beta-D-mannopyranosyl-(1->2)-2-deoxy-2-thio-beta-D-mannopyranoside

> <IUPAC_NAME>
propyl beta-D-mannopyranosyl-(1->2)-beta-D-mannopyranosyl-(1->2)-2-thio-beta-D-mannopyranoside

> <FORMULA>
C21H38O15S

> <MASS>
562.58200

> <MONOISOTOPIC_MASS>
562.19314

> <CHARGE>
0

> <SMILES>
CCCO[C@@H]1O[C@H](CO)[C@@H](O)[C@H](O)[C@@H]1S[C@@H]1O[C@H](CO)[C@@H](O)[C@H](O)[C@@H]1O[C@@H]1O[C@H](CO)[C@@H](O)[C@H](O)[C@@H]1O

> <INCHI>
InChI=1S/C21H38O15S/c1-2-3-32-20-18(15(30)12(27)8(5-23)34-20)37-21-17(14(29)11(26)9(6-24)35-21)36-19-16(31)13(28)10(25)7(4-22)33-19/h7-31H,2-6H2,1H3/t7-,8-,9-,10-,11-,12-,13+,14+,15+,16+,17+,18+,19+,20-,21+/m1/s1

> <INCHIKEY>
ZELQEUPLYMBMBB-CRBPVCTJSA-N

> <REAXYS_REGISTRY_NUMBER>
19117345

> <PUBMED_CITATION>
18543264

$$$$

Marvin  06171112162D          

 37 39  0  0  1  0            999 V2000
   16.8109   -7.3612    0.0000 C   0  0  1  0  0  0  0  0  0  0  0  0
   17.5214   -6.9466    0.0000 O   0  0  0  0  0  0  0  0  0  0  0  0
   16.8109   -8.1960    0.0000 C   0  0  1  0  0  0  0  0  0  0  0  0
   17.5247   -8.6039    0.0000 O   0  0  0  0  0  0  0  0  0  0  0  0
   16.1076   -8.5981    0.0000 C   0  0  1  0  0  0  0  0  0  0  0  0
   16.1145   -9.4206    0.0000 O   0  0  0  0  0  0  0  0  0  0  0  0
   15.3900   -8.1901    0.0000 C   0  0  2  0  0  0  0  0  0  0  0  0
   14.6796   -8.6047    0.0000 O   0  0  0  0  0  0  0  0  0  0  0  0
   15.3760   -7.3801    0.0000 C   0  0  2  0  0  0  0  0  0  0  0  0
   16.0934   -6.9532    0.0000 O   0  0  0  0  0  0  0  0  0  0  0  0
   14.6709   -6.9791    0.0000 C   0  0  0  0  0  0  0  0  0  0  0  0
   13.9551   -7.3742    0.0000 O   0  0  0  0  0  0  0  0  0  0  0  0
   18.2302   -7.3542    0.0000 C   0  0  0  0  0  0  0  0  0  0  0  0
   18.9437   -6.9380    0.0000 C   0  0  0  0  0  0  0  0  0  0  0  0
   17.5222   -9.4264    0.0000 C   0  0  1  0  0  0  0  0  0  0  0  0
   18.2349   -9.8370    0.0000 C   0  0  1  0  0  0  0  0  0  0  0  0
   18.9624   -9.4180    0.0000 S   0  0  0  0  0  0  0  0  0  0  0  0
   18.2325  -10.6595    0.0000 C   0  0  1  0  0  0  0  0  0  0  0  0
   18.9451  -11.0701    0.0000 O   0  0  0  0  0  0  0  0  0  0  0  0
   17.5295  -11.0644    0.0000 C   0  0  2  0  0  0  0  0  0  0  0  0
   17.5270  -11.8869    0.0000 O   0  0  0  0  0  0  0  0  0  0  0  0
   16.8169  -10.6538    0.0000 C   0  0  2  0  0  0  0  0  0  0  0  0
   16.8194   -9.8312    0.0000 O   0  0  0  0  0  0  0  0  0  0  0  0
   16.1016  -11.0657    0.0000 C   0  0  0  0  0  0  0  0  0  0  0  0
   16.1008  -11.8812    0.0000 O   0  0  0  0  0  0  0  0  0  0  0  0
   19.6578   -7.3460    0.0000 C   0  0  0  0  0  0  0  0  0  0  0  0
   19.6825   -9.8208    0.0000 C   0  0  1  0  0  0  0  0  0  0  0  0
   20.3914   -9.3986    0.0000 C   0  0  1  0  0  0  0  0  0  0  0  0
   20.3801   -8.5736    0.0000 O   0  0  0  0  0  0  0  0  0  0  0  0
   21.1114   -9.8013    0.0000 C   0  0  1  0  0  0  0  0  0  0  0  0
   21.8203   -9.3791    0.0000 O   0  0  0  0  0  0  0  0  0  0  0  0
   21.1226  -10.6262    0.0000 C   0  0  2  0  0  0  0  0  0  0  0  0
   21.8427  -11.0290    0.0000 O   0  0  0  0  0  0  0  0  0  0  0  0
   20.4138  -11.0485    0.0000 C   0  0  2  0  0  0  0  0  0  0  0  0
   19.6938  -10.6457    0.0000 O   0  0  0  0  0  0  0  0  0  0  0  0
   20.4251  -11.8734    0.0000 C   0  0  0  0  0  0  0  0  0  0  0  0
   21.1451  -12.2762    0.0000 O   0  0  0  0  0  0  0  0  0  0  0  0
  1  2  1  1  0  0  0
  3  1  1  0  0  0  0
 10  1  1  0  0  0  0
  3  4  1  1  0  0  0
  5  3  1  0  0  0  0
  5  6  1  1  0  0  0
  7  5  1  0  0  0  0
  7  8  1  6  0  0  0
  9  7  1  0  0  0  0
 10  9  1  0  0  0  0
  9 11  1  1  0  0  0
 12 11  1  0  0  0  0
  2 13  1  0  0  0  0
 13 14  1  0  0  0  0
 15  4  1  1  0  0  0
 16 15  1  0  0  0  0
 23 15  1  0  0  0  0
 16 17  1  1  0  0  0
 18 16  1  0  0  0  0
 18 19  1  1  0  0  0
 20 18  1  0  0  0  0
 20 21  1  6  0  0  0
 22 20  1  0  0  0  0
 23 22  1  0  0  0  0
 22 24  1  1  0  0  0
 25 24  1  0  0  0  0
 14 26  1  0  0  0  0
 27 17  1  1  0  0  0
 28 27  1  0  0  0  0
 35 27  1  0  0  0  0
 28 29  1  1  0  0  0
 30 28  1  0  0  0  0
 30 31  1  1  0  0  0
 32 30  1  0  0  0  0
 32 33  1  6  0  0  0
 34 32  1  0  0  0  0
 35 34  1  0  0  0  0
 34 36  1  1  0  0  0
 37 36  1  0  0  0  0
M  END
> <ID>
CHEBI:62363

> <NAME>
propyl beta-D-mannopyranosyl-(1->2)-2-thio-beta-D-mannopyranosyl-(1->2)-beta-D-mannopyranoside

> <DEFINITION>
A glycoside that is the n-propyl glycoside of β-D-mannopyranosyl-(1→2)-2-thio-β-D-mannopyranosyl-(1→2)-β-D-mannopyranose.

> <STAR>
3

> <SYNONYM>
propyl (beta-D-mannopyranosyl)-(1->2)-(2-deoxy-2-thio-beta-D-mannopyranosyl)-(1->2)-beta-D-mannopyranoside; propyl (1-thio-beta-D-mannopyranosyl)-(1->2)-(2-deoxy-2-thio-beta-D-mannopyranosyl)-(1->2)-beta-D-mannopyranoside

> <IUPAC_NAME>
propyl beta-D-mannopyranosyl-(1->2)-2-thio-beta-D-mannopyranosyl-(1->2)-beta-D-mannopyranoside

> <FORMULA>
C21H38O15S

> <MASS>
562.58200

> <MONOISOTOPIC_MASS>
562.19314

> <CHARGE>
0

> <SMILES>
CCCO[C@@H]1O[C@H](CO)[C@@H](O)[C@H](O)[C@@H]1O[C@@H]1O[C@H](CO)[C@@H](O)[C@H](O)[C@@H]1S[C@@H]1O[C@H](CO)[C@@H](O)[C@H](O)[C@@H]1O

> <INCHI>
InChI=1S/C21H38O15S/c1-2-3-32-19-17(14(29)11(26)7(4-22)33-19)36-20-18(15(30)12(27)8(5-23)34-20)37-21-16(31)13(28)10(25)9(6-24)35-21/h7-31H,2-6H2,1H3/t7-,8-,9-,10-,11-,12-,13+,14+,15+,16+,17+,18+,19-,20+,21+/m1/s1

> <INCHIKEY>
QTMQVNFNZKBWCG-YBWDPCNVSA-N

> <REAXYS_REGISTRY_NUMBER>
19117346

> <PUBMED_CITATION>
18543264

$$$$

Marvin  09111216252D          

 47 50  0  0  1  0            999 V2000
   20.5478   -7.3445    0.0000 C   0  0  1  0  0  0  0  0  0  0  0  0
   20.5478   -8.1695    0.0000 C   0  0  1  0  0  0  0  0  0  0  0  0
   19.8334   -6.9320    0.0000 O   0  0  0  0  0  0  0  0  0  0  0  0
   19.8334   -8.5820    0.0000 C   0  0  2  0  0  0  0  0  0  0  0  0
   19.1190   -7.3445    0.0000 C   0  0  1  0  0  0  0  0  0  0  0  0
   19.1190   -8.1695    0.0000 C   0  0  2  0  0  0  0  0  0  0  0  0
   21.2623   -6.9320    0.0000 O   0  0  0  0  0  0  0  0  0  0  0  0
   21.2623   -8.5820    0.0000 O   0  0  0  0  0  0  0  0  0  0  0  0
   19.8334   -9.4069    0.0000 O   0  0  0  0  0  0  0  0  0  0  0  0
   18.4044   -8.5820    0.0000 O   0  0  0  0  0  0  0  0  0  0  0  0
   18.4044   -6.9320    0.0000 C   0  0  0  0  0  0  0  0  0  0  0  0
   17.6900   -7.3445    0.0000 O   0  0  0  0  0  0  0  0  0  0  0  0
   19.1190   -9.8194    0.0000 C   0  0  2  0  0  0  0  0  0  0  0  0
   19.1190  -10.6444    0.0000 C   0  0  1  0  0  0  0  0  0  0  0  0
   18.4044   -9.4069    0.0000 O   0  0  0  0  0  0  0  0  0  0  0  0
   18.4044  -11.0566    0.0000 C   0  0  2  0  0  0  0  0  0  0  0  0
   17.6900   -9.8194    0.0000 C   0  0  1  0  0  0  0  0  0  0  0  0
   17.6900  -10.6444    0.0000 C   0  0  2  0  0  0  0  0  0  0  0  0
   19.8334  -11.0566    0.0000 N   0  0  0  0  0  0  0  0  0  0  0  0
   18.4044  -11.8818    0.0000 O   0  0  0  0  0  0  0  0  0  0  0  0
   16.9756  -11.0566    0.0000 O   0  0  0  0  0  0  0  0  0  0  0  0
   16.9756   -9.4069    0.0000 C   0  0  0  0  0  0  0  0  0  0  0  0
   16.2610   -9.8194    0.0000 O   0  0  0  0  0  0  0  0  0  0  0  0
   19.8334  -11.8818    0.0000 C   0  0  0  0  0  0  0  0  0  0  0  0
   20.5479  -12.2942    0.0000 O   0  0  0  0  0  0  0  0  0  0  0  0
   19.1190  -12.2943    0.0000 C   0  0  0  0  0  0  0  0  0  0  0  0
   24.1202   -5.2820    0.0000 O   0  0  0  0  0  0  0  0  0  0  0  0
   23.4057   -5.6945    0.0000 C   0  0  1  0  0  0  0  0  0  0  0  0
   23.4057   -6.5195    0.0000 C   0  0  1  0  0  0  0  0  0  0  0  0
   22.6911   -5.2820    0.0000 O   0  0  0  0  0  0  0  0  0  0  0  0
   22.6911   -6.9320    0.0000 C   0  0  2  0  0  0  0  0  0  0  0  0
   21.9767   -5.6945    0.0000 C   0  0  1  0  0  0  0  0  0  0  0  0
   21.9767   -6.5195    0.0000 C   0  0  1  0  0  0  0  0  0  0  0  0
   24.1202   -6.9320    0.0000 O   0  0  0  0  0  0  0  0  0  0  0  0
   21.2623   -5.2820    0.0000 C   0  0  0  0  0  0  0  0  0  0  0  0
   20.5477   -5.6945    0.0000 O   0  0  0  0  0  0  0  0  0  0  0  0
   22.6910   -7.7570    0.0000 O   0  0  0  0  0  0  0  0  0  0  0  0
   21.2622  -10.0110    0.0000 O   0  0  0  0  0  0  0  0  0  0  0  0
   21.6746  -10.7254    0.0000 C   0  0  2  0  0  0  0  0  0  0  0  0
   21.6748   -9.2964    0.0000 C   0  0  2  0  0  0  0  0  0  0  0  0
   22.4997   -9.2964    0.0000 C   0  0  2  0  0  0  0  0  0  0  0  0
   22.9122  -10.0110    0.0000 C   0  0  1  0  0  0  0  0  0  0  0  0
   22.4997  -10.7256    0.0000 C   0  0  2  0  0  0  0  0  0  0  0  0
   22.9125   -8.5822    0.0000 O   0  0  0  0  0  0  0  0  0  0  0  0
   23.7371  -10.0110    0.0000 O   0  0  0  0  0  0  0  0  0  0  0  0
   22.9121  -11.4398    0.0000 O   0  0  0  0  0  0  0  0  0  0  0  0
   21.2621  -11.4398    0.0000 C   0  0  0  0  0  0  0  0  0  0  0  0
  1  2  1  0  0  0  0
  1  3  1  0  0  0  0
  2  4  1  0  0  0  0
  3  5  1  0  0  0  0
  4  6  1  0  0  0  0
  5  6  1  0  0  0  0
  1  7  1  1  0  0  0
  2  8  1  6  0  0  0
  4  9  1  1  0  0  0
  6 10  1  1  0  0  0
  5 11  1  1  0  0  0
 12 11  1  0  0  0  0
 13 14  1  0  0  0  0
 13 15  1  0  0  0  0
 14 16  1  0  0  0  0
 15 17  1  0  0  0  0
 16 18  1  0  0  0  0
 17 18  1  0  0  0  0
 13  9  1  6  0  0  0
 14 19  1  6  0  0  0
 16 20  1  1  0  0  0
 18 21  1  1  0  0  0
 17 22  1  1  0  0  0
 23 22  1  0  0  0  0
 25 24  2  0  0  0  0
 26 24  1  0  0  0  0
 19 24  1  0  0  0  0
 28 29  1  0  0  0  0
 28 30  1  0  0  0  0
 29 31  1  0  0  0  0
 30 32  1  0  0  0  0
 31 33  1  0  0  0  0
 32 33  1  0  0  0  0
 28 27  1  1  0  0  0
 29 34  1  6  0  0  0
 33  7  1  6  0  0  0
 32 35  1  1  0  0  0
 36 35  1  0  0  0  0
 31 37  1  1  0  0  0
 39 38  1  0  0  0  0
 40 38  1  0  0  0  0
 40 41  1  0  0  0  0
 41 44  1  1  0  0  0
 41 42  1  0  0  0  0
 42 45  1  6  0  0  0
 42 43  1  0  0  0  0
 43 39  1  0  0  0  0
 43 46  1  6  0  0  0
 39 47  1  6  0  0  0
 40  8  1  1  0  0  0
M  END
> <ID>
CHEBI:62364

> <NAME>
alpha-D-GalpNAc-(1->3)-[alpha-L-Fucp-(1->2)]-beta-D-Galp-(1->4)-beta-D-Glcp

> <DEFINITION>
A branched amino tetrasaccharide consisting of β-D-glucose at the reducing end having an N-acetyl-α-D-galactosaminyl-(1→3)-[α-L-fucosyl-(1→2)]-β-D-galactosyl moiety attached at the 4-position.

> <STAR>
3

> <SYNONYM>
N-acetyl-alpha-D-galactosaminyl-(1->3)-[alpha-L-fucosyl-(1->2)]-beta-D-galactosyl-(1->4)-beta-D-glucose; GalNAcalpha1-3(Fucalpha1-2)Galbeta1-4Glcbeta; GalNAca1-3(Fuca1-2)Galb1-4Glcb; alpha-D-GalNAc-(1->3)-[alpha-L-Fuc-(1->2)]-beta-D-Gal-(1->4)-beta-D-Glc; 2-acetamido-2-deoxy-alpha-D-galactopyranosyl-(1->3)-[6-deoxy-alpha-L-galactopyranosyl-(1->2)]-beta-D-galactopyranosyl-(1->4)-beta-D-glucopyranose

> <IUPAC_NAME>
2-acetamido-2-deoxy-alpha-D-galactopyranosyl-(1->3)-[alpha-L-fucopyranosyl-(1->2)]-beta-D-galactopyranosyl-(1->4)-D-glucopyranose

> <FORMULA>
C26H45NO20

> <MASS>
691.63020

> <MONOISOTOPIC_MASS>
691.25349

> <CHARGE>
0

> <SMILES>
C[C@@H]1O[C@@H](O[C@H]2[C@@H](O[C@H](CO)[C@H](O)[C@@H]2O[C@H]2O[C@H](CO)[C@H](O)[C@H](O)[C@H]2NC(C)=O)O[C@H]2[C@H](O)[C@@H](O)[C@H](O)O[C@@H]2CO)[C@@H](O)[C@H](O)[C@@H]1O

> <INCHI>
InChI=1S/C26H45NO20/c1-6-12(32)16(36)19(39)25(41-6)47-22-21(46-24-11(27-7(2)31)15(35)13(33)8(3-28)43-24)14(34)9(4-29)44-26(22)45-20-10(5-30)42-23(40)18(38)17(20)37/h6,8-26,28-30,32-40H,3-5H2,1-2H3,(H,27,31)/t6-,8+,9+,10+,11+,12+,13-,14-,15+,16+,17+,18+,19-,20+,21-,22+,23+,24+,25-,26-/m0/s1

> <INCHIKEY>
DKMKTGYNNHUIAK-JLWVKAFHSA-N

> <PUBMED_CITATION>
19443021; 25568069; 31537530; 8212667

$$$$

Marvin  06201110202D          

 32 34  0  0  1  0            999 V2000
   15.0145   -7.7270    0.0000 C   0  0  1  0  0  0  0  0  0  0  0  0
   15.7290   -8.1395    0.0000 C   0  0  1  0  0  0  0  0  0  0  0  0
   14.3000   -8.1396    0.0000 O   0  0  0  0  0  0  0  0  0  0  0  0
   15.7290   -8.9645    0.0000 C   0  0  2  0  0  0  0  0  0  0  0  0
   14.3000   -8.9645    0.0000 C   0  0  0  0  0  0  0  0  0  0  0  0
   15.0145   -9.3770    0.0000 C   0  0  1  0  0  0  0  0  0  0  0  0
   16.4435   -7.7270    0.0000 O   0  0  0  0  0  0  0  0  0  0  0  0
   16.4435   -9.3770    0.0000 O   0  0  0  0  0  0  0  0  0  0  0  0
   15.0146  -10.2021    0.0000 O   0  0  0  0  0  0  0  0  0  0  0  0
   15.0145   -6.9020    0.0000 O   0  0  0  0  0  0  0  0  0  0  0  0
   10.7276   -5.2519    0.0000 C   0  0  2  0  0  0  0  0  0  0  0  0
   10.0131   -5.6644    0.0000 C   0  0  2  0  0  0  0  0  0  0  0  0
   10.7276   -4.4268    0.0000 O   0  0  0  0  0  0  0  0  0  0  0  0
    9.2986   -5.2516    0.0000 C   0  0  2  0  0  0  0  0  0  0  0  0
   10.0132   -4.0143    0.0000 C   0  0  1  0  0  0  0  0  0  0  0  0
    9.2987   -4.4268    0.0000 C   0  0  1  0  0  0  0  0  0  0  0  0
   10.0130   -6.4893    0.0000 O   0  0  0  0  0  0  0  0  0  0  0  0
    8.5842   -5.6641    0.0000 O   0  0  0  0  0  0  0  0  0  0  0  0
    8.5844   -4.0142    0.0000 O   0  0  0  0  0  0  0  0  0  0  0  0
   10.0133   -3.1894    0.0000 C   0  0  0  0  0  0  0  0  0  0  0  0
    9.2988   -2.7768    0.0000 O   0  0  0  0  0  0  0  0  0  0  0  0
   11.4420   -5.6645    0.0000 O   0  0  0  0  0  0  0  0  0  0  0  0
   14.3000   -5.6645    0.0000 C   0  0  1  0  0  0  0  0  0  0  0  0
   14.3000   -6.4895    0.0000 C   0  0  2  0  0  0  0  0  0  0  0  0
   13.5855   -5.2519    0.0000 O   0  0  0  0  0  0  0  0  0  0  0  0
   13.5855   -6.9020    0.0000 C   0  0  2  0  0  0  0  0  0  0  0  0
   12.8710   -5.6645    0.0000 C   0  0  1  0  0  0  0  0  0  0  0  0
   12.8710   -6.4895    0.0000 C   0  0  1  0  0  0  0  0  0  0  0  0
   15.0145   -5.2519    0.0000 O   0  0  0  0  0  0  0  0  0  0  0  0
   13.5855   -7.7269    0.0000 O   0  0  0  0  0  0  0  0  0  0  0  0
   12.1566   -6.9020    0.0000 O   0  0  0  0  0  0  0  0  0  0  0  0
   12.1566   -5.2519    0.0000 C   0  0  0  0  0  0  0  0  0  0  0  0
  1  2  1  0  0  0  0
  1  3  1  0  0  0  0
  2  4  1  0  0  0  0
  3  5  1  0  0  0  0
  4  6  1  0  0  0  0
  5  6  1  0  0  0  0
  2  7  1  6  0  0  0
  4  8  1  1  0  0  0
  6  9  1  6  0  0  0
  1 10  1  1  0  0  0
 11 12  1  0  0  0  0
 11 13  1  0  0  0  0
 12 14  1  0  0  0  0
 13 15  1  0  0  0  0
 14 16  1  0  0  0  0
 15 16  1  0  0  0  0
 12 17  1  1  0  0  0
 14 18  1  1  0  0  0
 16 19  1  6  0  0  0
 15 20  1  1  0  0  0
 21 20  1  0  0  0  0
 11 22  1  6  0  0  0
 23 24  1  0  0  0  0
 23 25  1  0  0  0  0
 24 26  1  0  0  0  0
 25 27  1  0  0  0  0
 26 28  1  0  0  0  0
 27 28  1  0  0  0  0
 23 29  1  1  0  0  0
 24 10  1  1  0  0  0
 26 30  1  1  0  0  0
 28 31  1  6  0  0  0
 27 32  1  1  0  0  0
 22 32  1  0  0  0  0
M  END
> <ID>
CHEBI:62373

> <NAME>
alpha-D-Manp-(1->6)-[beta-D-Xylp-(1->2)]-beta-D-Manp

> <DEFINITION>
A branched trisaccharide consisting of β-D-mannose having β-D-xylosyl and α-D-mannosyl residues attached at the 2- and 6-positions respectively.

> <STAR>
3

> <SYNONYM>
alpha-D-mannosyl-(1->6)-[beta-D-xylosyl-(1->2)]-beta-D-mannose; alpha-D-Man-(1->6)-[beta-D-Xyl-(1->2)]-beta-D-Man

> <IUPAC_NAME>
alpha-D-mannopyranosyl-(1->6)-[beta-D-xylopyranosyl-(1->2)]-beta-D-mannopyranose

> <FORMULA>
C17H30O15

> <MASS>
474.41110

> <MONOISOTOPIC_MASS>
474.15847

> <CHARGE>
0

> <SMILES>
OC[C@H]1O[C@H](OC[C@H]2O[C@@H](O)[C@@H](O[C@@H]3OC[C@@H](O)[C@H](O)[C@H]3O)[C@@H](O)[C@@H]2O)[C@@H](O)[C@@H](O)[C@@H]1O

> <INCHI>
InChI=1S/C17H30O15/c18-1-5-8(21)10(23)13(26)16(31-5)29-3-6-9(22)11(24)14(15(27)30-6)32-17-12(25)7(20)4(19)2-28-17/h4-27H,1-3H2/t4-,5-,6-,7+,8-,9-,10+,11+,12-,13+,14+,15-,16+,17+/m1/s1

> <INCHIKEY>
ZFRSBPSLWCTVBP-LASNEUDCSA-N

> <PUBMED_CITATION>
21237664

$$$$

Marvin  06281110032D          

 50 53  0  0  1  0            999 V2000
    9.2431   -4.7377    0.0000 C   0  0  1  0  0  0  0  0  0  0  0  0
    9.2431   -5.5627    0.0000 C   0  0  1  0  0  0  0  0  0  0  0  0
    8.5287   -4.3252    0.0000 O   0  0  0  0  0  0  0  0  0  0  0  0
    8.5287   -5.9752    0.0000 C   0  0  2  0  0  0  0  0  0  0  0  0
    7.8143   -4.7377    0.0000 C   0  0  1  0  0  0  0  0  0  0  0  0
    7.8143   -5.5627    0.0000 C   0  0  2  0  0  0  0  0  0  0  0  0
    9.9576   -4.3252    0.0000 O   0  0  0  0  0  0  0  0  0  0  0  0
    9.9576   -5.9752    0.0000 O   0  0  0  0  0  0  0  0  0  0  0  0
    8.5287   -6.8001    0.0000 O   0  0  0  0  0  0  0  0  0  0  0  0
    7.0997   -5.9752    0.0000 O   0  0  0  0  0  0  0  0  0  0  0  0
    7.0997   -4.3252    0.0000 C   0  0  0  0  0  0  0  0  0  0  0  0
    6.3854   -4.7377    0.0000 O   0  0  0  0  0  0  0  0  0  0  0  0
    7.8143   -7.2126    0.0000 C   0  0  2  0  0  0  0  0  0  0  0  0
    7.8143   -8.0376    0.0000 C   0  0  1  0  0  0  0  0  0  0  0  0
    7.0997   -6.8001    0.0000 O   0  0  0  0  0  0  0  0  0  0  0  0
    7.0997   -8.4500    0.0000 C   0  0  2  0  0  0  0  0  0  0  0  0
    6.3854   -7.2126    0.0000 C   0  0  1  0  0  0  0  0  0  0  0  0
    6.3854   -8.0376    0.0000 C   0  0  2  0  0  0  0  0  0  0  0  0
    8.5287   -8.4500    0.0000 N   0  0  0  0  0  0  0  0  0  0  0  0
    7.0997   -9.2750    0.0000 O   0  0  0  0  0  0  0  0  0  0  0  0
    5.6709   -8.4500    0.0000 O   0  0  0  0  0  0  0  0  0  0  0  0
    5.6709   -6.8001    0.0000 C   0  0  0  0  0  0  0  0  0  0  0  0
    4.9564   -7.2126    0.0000 O   0  0  0  0  0  0  0  0  0  0  0  0
   10.6720   -7.2126    0.0000 O   0  0  0  0  0  0  0  0  0  0  0  0
   11.3864   -7.6251    0.0000 C   0  0  2  0  0  0  0  0  0  0  0  0
   10.6720   -6.3876    0.0000 C   0  0  2  0  0  0  0  0  0  0  0  0
   11.3864   -5.9751    0.0000 C   0  0  2  0  0  0  0  0  0  0  0  0
   12.1010   -6.3877    0.0000 C   0  0  1  0  0  0  0  0  0  0  0  0
   12.1010   -7.2127    0.0000 C   0  0  2  0  0  0  0  0  0  0  0  0
   11.3867   -5.1502    0.0000 O   0  0  0  0  0  0  0  0  0  0  0  0
   12.8154   -5.9752    0.0000 O   0  0  0  0  0  0  0  0  0  0  0  0
   12.8154   -7.6251    0.0000 O   0  0  0  0  0  0  0  0  0  0  0  0
   11.3864   -8.4501    0.0000 C   0  0  0  0  0  0  0  0  0  0  0  0
    8.5287   -9.2750    0.0000 C   0  0  0  0  0  0  0  0  0  0  0  0
    9.2432   -9.6874    0.0000 O   0  0  0  0  0  0  0  0  0  0  0  0
    7.8143   -9.6875    0.0000 C   0  0  0  0  0  0  0  0  0  0  0  0
   11.3867   -1.8503    0.0000 O   0  0  0  0  0  0  0  0  0  0  0  0
   10.6722   -2.2628    0.0000 C   0  0  0  0  0  0  0  0  0  0  0  0
   10.6722   -3.0878    0.0000 C   0  0  1  0  0  0  0  0  0  0  0  0
    9.9576   -1.8503    0.0000 O   0  0  0  0  0  0  0  0  0  0  0  0
    9.9576   -3.5002    0.0000 C   0  0  2  0  0  0  0  0  0  0  0  0
    9.2432   -2.2628    0.0000 C   0  0  1  0  0  0  0  0  0  0  0  0
    9.2432   -3.0878    0.0000 C   0  0  1  0  0  0  0  0  0  0  0  0
   11.3867   -3.5002    0.0000 N   0  0  0  0  0  0  0  0  0  0  0  0
    8.5288   -3.5002    0.0000 O   0  0  0  0  0  0  0  0  0  0  0  0
    8.5288   -1.8503    0.0000 C   0  0  0  0  0  0  0  0  0  0  0  0
    7.8142   -2.2628    0.0000 O   0  0  0  0  0  0  0  0  0  0  0  0
   12.1010   -3.0877    0.0000 C   0  0  0  0  0  0  0  0  0  0  0  0
   12.1010   -2.2628    0.0000 O   0  0  0  0  0  0  0  0  0  0  0  0
   12.8155   -3.5002    0.0000 C   0  0  0  0  0  0  0  0  0  0  0  0
  1  2  1  0  0  0  0
  1  3  1  0  0  0  0
  2  4  1  0  0  0  0
  3  5  1  0  0  0  0
  4  6  1  0  0  0  0
  5  6  1  0  0  0  0
  1  7  1  1  0  0  0
  2  8  1  6  0  0  0
  4  9  1  1  0  0  0
  6 10  1  1  0  0  0
  5 11  1  1  0  0  0
 12 11  1  0  0  0  0
 13 14  1  0  0  0  0
 13 15  1  0  0  0  0
 14 16  1  0  0  0  0
 15 17  1  0  0  0  0
 16 18  1  0  0  0  0
 17 18  1  0  0  0  0
 13  9  1  6  0  0  0
 14 19  1  6  0  0  0
 16 20  1  1  0  0  0
 18 21  1  1  0  0  0
 17 22  1  1  0  0  0
 23 22  1  0  0  0  0
 25 24  1  0  0  0  0
 26 24  1  0  0  0  0
 26  8  1  1  0  0  0
 26 27  1  0  0  0  0
 27 30  1  1  0  0  0
 27 28  1  0  0  0  0
 28 31  1  6  0  0  0
 28 29  1  0  0  0  0
 29 25  1  0  0  0  0
 29 32  1  6  0  0  0
 25 33  1  6  0  0  0
 35 34  2  0  0  0  0
 36 34  1  0  0  0  0
 19 34  1  0  0  0  0
 38 39  1  0  0  0  0
 38 40  1  0  0  0  0
 39 41  1  0  0  0  0
 40 42  1  0  0  0  0
 41 43  1  0  0  0  0
 42 43  1  0  0  0  0
 38 37  1  0  0  0  0
 39 44  1  6  0  0  0
 41  7  1  1  0  0  0
 43 45  1  6  0  0  0
 42 46  1  1  0  0  0
 47 46  1  0  0  0  0
 49 48  2  0  0  0  0
 50 48  1  0  0  0  0
 44 48  1  0  0  0  0
M  END
> <ID>
CHEBI:62451

> <NAME>
alpha-D-GalpNAc-(1->3)-[alpha-L-Fucp-(1->2)]-beta-D-Galp-(1->3)-D-GlcpNAc

> <DEFINITION>
A branched amino tetrasaccharide comprising N-acetyl-D-glucosamine at the reducing end with a N-acetyl-α-D-galactosaminyl-(1→3)-[α-L-fucosyl-(1→2)]-β-D-galactosyl moiety attached at the 3-position.

> <STAR>
3

> <SYNONYM>
N-acetyl-alpha-D-galactosaminyl-(1->3)-[alpha-L-fucosyl-(1->2)]-beta-D-galactosyl-(1->3)-N-acetyl-D-glucosamine; alpha-D-GalNAc-(1->3)-[alpha-L-Fuc-(1->2)]-beta-D-Gal-(1->3)-D-GlcNAc; 2-acetamido-2-deoxy-alpha-D-galactopyranosyl-(1->3)-[6-deoxy-alpha-L-galactopyranosyl-(1->2)]-beta-D-galactopyranosyl-(1->3)-2-acetamido-2-deoxy-D-glucopyranose; (Gal)1 (GalNAc)1 (GlcNAc)1 (LFuc)1

> <IUPAC_NAME>
2-acetamido-2-deoxy-alpha-D-galactopyranosyl-(1->3)-[alpha-L-fucopyranosyl-(1->2)]-beta-D-galactopyranosyl-(1->3)-2-acetamido-2-deoxy-D-glucopyranose

> <FORMULA>
C28H48N2O20

> <MASS>
732.68210

> <MONOISOTOPIC_MASS>
732.28004

> <CHARGE>
0

> <SMILES>
C[C@@H]1O[C@@H](O[C@H]2[C@@H](O[C@H](CO)[C@H](O)[C@@H]2O[C@H]2O[C@H](CO)[C@H](O)[C@H](O)[C@H]2NC(C)=O)O[C@H]2[C@H](O)[C@@H](CO)OC(O)[C@@H]2NC(C)=O)[C@@H](O)[C@H](O)[C@@H]1O

> <INCHI>
InChI=1S/C28H48N2O20/c1-7-15(36)20(41)21(42)27(44-7)50-24-23(49-26-13(29-8(2)34)19(40)16(37)10(4-31)46-26)18(39)12(6-33)47-28(24)48-22-14(30-9(3)35)25(43)45-11(5-32)17(22)38/h7,10-28,31-33,36-43H,4-6H2,1-3H3,(H,29,34)(H,30,35)/t7-,10+,11+,12+,13+,14+,15+,16-,17+,18-,19+,20+,21-,22+,23-,24+,25?,26+,27-,28-/m0/s1

> <INCHIKEY>
OEMMSBBXHGIOBY-QVCBXWJVSA-N

> <REAXYS_REGISTRY_NUMBER>
1417804

> <KEGG_GLYCAN_ACCESSION>
G00358

> <PUBMED_CITATION>
2458640; 3115981; 4104425

$$$$

Marvin  06281110282D          

 50 53  0  0  1  0            999 V2000
    9.2431   -4.7377    0.0000 C   0  0  1  0  0  0  0  0  0  0  0  0
    9.2431   -5.5627    0.0000 C   0  0  1  0  0  0  0  0  0  0  0  0
    8.5287   -4.3252    0.0000 O   0  0  0  0  0  0  0  0  0  0  0  0
    8.5287   -5.9752    0.0000 C   0  0  2  0  0  0  0  0  0  0  0  0
    7.8143   -4.7377    0.0000 C   0  0  1  0  0  0  0  0  0  0  0  0
    7.8143   -5.5627    0.0000 C   0  0  2  0  0  0  0  0  0  0  0  0
    9.9576   -4.3252    0.0000 O   0  0  0  0  0  0  0  0  0  0  0  0
    9.9576   -5.9752    0.0000 O   0  0  0  0  0  0  0  0  0  0  0  0
    8.5287   -6.8001    0.0000 O   0  0  0  0  0  0  0  0  0  0  0  0
    7.0997   -5.9752    0.0000 O   0  0  0  0  0  0  0  0  0  0  0  0
    7.0997   -4.3252    0.0000 C   0  0  0  0  0  0  0  0  0  0  0  0
    6.3854   -4.7377    0.0000 O   0  0  0  0  0  0  0  0  0  0  0  0
    7.8143   -7.2126    0.0000 C   0  0  2  0  0  0  0  0  0  0  0  0
    7.8143   -8.0376    0.0000 C   0  0  1  0  0  0  0  0  0  0  0  0
    7.0997   -6.8001    0.0000 O   0  0  0  0  0  0  0  0  0  0  0  0
    7.0997   -8.4500    0.0000 C   0  0  2  0  0  0  0  0  0  0  0  0
    6.3854   -7.2126    0.0000 C   0  0  1  0  0  0  0  0  0  0  0  0
    6.3854   -8.0376    0.0000 C   0  0  2  0  0  0  0  0  0  0  0  0
    8.5287   -8.4500    0.0000 N   0  0  0  0  0  0  0  0  0  0  0  0
    7.0997   -9.2750    0.0000 O   0  0  0  0  0  0  0  0  0  0  0  0
    5.6709   -8.4500    0.0000 O   0  0  0  0  0  0  0  0  0  0  0  0
    5.6709   -6.8001    0.0000 C   0  0  0  0  0  0  0  0  0  0  0  0
    4.9564   -7.2126    0.0000 O   0  0  0  0  0  0  0  0  0  0  0  0
    8.5287   -9.2750    0.0000 C   0  0  0  0  0  0  0  0  0  0  0  0
    9.2432   -9.6874    0.0000 O   0  0  0  0  0  0  0  0  0  0  0  0
    7.8143   -9.6875    0.0000 C   0  0  0  0  0  0  0  0  0  0  0  0
   12.8155   -2.6753    0.0000 O   0  0  0  0  0  0  0  0  0  0  0  0
   12.1010   -3.0878    0.0000 C   0  0  0  0  0  0  0  0  0  0  0  0
   12.1010   -3.9128    0.0000 C   0  0  1  0  0  0  0  0  0  0  0  0
   11.3864   -2.6753    0.0000 O   0  0  0  0  0  0  0  0  0  0  0  0
   11.3864   -4.3252    0.0000 C   0  0  2  0  0  0  0  0  0  0  0  0
   10.6720   -3.0878    0.0000 C   0  0  1  0  0  0  0  0  0  0  0  0
   10.6720   -3.9128    0.0000 C   0  0  1  0  0  0  0  0  0  0  0  0
   12.8155   -4.3252    0.0000 N   0  0  0  0  0  0  0  0  0  0  0  0
    9.9576   -2.6753    0.0000 C   0  0  0  0  0  0  0  0  0  0  0  0
    9.2430   -3.0878    0.0000 O   0  0  0  0  0  0  0  0  0  0  0  0
   13.5298   -3.9127    0.0000 C   0  0  0  0  0  0  0  0  0  0  0  0
   13.5298   -3.0878    0.0000 O   0  0  0  0  0  0  0  0  0  0  0  0
   14.2443   -4.3252    0.0000 C   0  0  0  0  0  0  0  0  0  0  0  0
   11.3863   -5.1502    0.0000 O   0  0  0  0  0  0  0  0  0  0  0  0
    9.9575   -7.4042    0.0000 O   0  0  0  0  0  0  0  0  0  0  0  0
   10.3699   -8.1186    0.0000 C   0  0  2  0  0  0  0  0  0  0  0  0
   10.3701   -6.6897    0.0000 C   0  0  2  0  0  0  0  0  0  0  0  0
   11.1950   -6.6897    0.0000 C   0  0  2  0  0  0  0  0  0  0  0  0
   11.6075   -7.4043    0.0000 C   0  0  1  0  0  0  0  0  0  0  0  0
   11.1950   -8.1188    0.0000 C   0  0  2  0  0  0  0  0  0  0  0  0
   11.6078   -5.9755    0.0000 O   0  0  0  0  0  0  0  0  0  0  0  0
   12.4324   -7.4043    0.0000 O   0  0  0  0  0  0  0  0  0  0  0  0
   11.6074   -8.8331    0.0000 O   0  0  0  0  0  0  0  0  0  0  0  0
    9.9574   -8.8331    0.0000 C   0  0  0  0  0  0  0  0  0  0  0  0
  1  2  1  0  0  0  0
  1  3  1  0  0  0  0
  2  4  1  0  0  0  0
  3  5  1  0  0  0  0
  4  6  1  0  0  0  0
  5  6  1  0  0  0  0
  1  7  1  1  0  0  0
  2  8  1  6  0  0  0
  4  9  1  1  0  0  0
  6 10  1  1  0  0  0
  5 11  1  1  0  0  0
 12 11  1  0  0  0  0
 13 14  1  0  0  0  0
 13 15  1  0  0  0  0
 14 16  1  0  0  0  0
 15 17  1  0  0  0  0
 16 18  1  0  0  0  0
 17 18  1  0  0  0  0
 13  9  1  6  0  0  0
 14 19  1  6  0  0  0
 16 20  1  1  0  0  0
 18 21  1  1  0  0  0
 17 22  1  1  0  0  0
 23 22  1  0  0  0  0
 25 24  2  0  0  0  0
 26 24  1  0  0  0  0
 19 24  1  0  0  0  0
 28 29  1  0  0  0  0
 28 30  1  0  0  0  0
 29 31  1  0  0  0  0
 30 32  1  0  0  0  0
 31 33  1  0  0  0  0
 32 33  1  0  0  0  0
 28 27  1  0  0  0  0
 29 34  1  6  0  0  0
 33  7  1  6  0  0  0
 32 35  1  1  0  0  0
 36 35  1  0  0  0  0
 38 37  2  0  0  0  0
 39 37  1  0  0  0  0
 34 37  1  0  0  0  0
 31 40  1  1  0  0  0
 42 41  1  0  0  0  0
 43 41  1  0  0  0  0
 43 44  1  0  0  0  0
 44 47  1  1  0  0  0
 44 45  1  0  0  0  0
 45 48  1  6  0  0  0
 45 46  1  0  0  0  0
 46 42  1  0  0  0  0
 46 49  1  6  0  0  0
 42 50  1  6  0  0  0
 43  8  1  1  0  0  0
M  END
> <ID>
CHEBI:62453

> <NAME>
alpha-D-GalpNAc-(1->3)-[alpha-L-Fucp-(1->2)]-beta-D-Galp-(1->4)-D-GlcpNAc

> <DEFINITION>
A branched amino tetrasaccharide comprising N-acetyl-D-glucosamine at the reducing end with a N-acetyl-α-D-galactosaminyl-(1→3)-[α-L-fucosyl-(1→2)]-β-D-galactosyl moiety attached at the 4-position.

> <STAR>
3

> <SYNONYM>
N-acetyl-alpha-D-galactosaminyl-(1->3)-[alpha-L-fucosyl-(1->2)]-beta-D-galactosyl-(1->4)-N-acetyl-D-glucosamine; alpha-D-GalNAc-(1->3)-[alpha-L-Fuc-(1->2)]-beta-D-Gal-(1->4)-D-GlcNAc; 2-acetamido-2-deoxy-alpha-D-galactopyranosyl-(1->3)-[6-deoxy-alpha-L-galactopyranosyl-(1->2)]-beta-D-galactopyranosyl-(1->4)-2-acetamido-2-deoxy-D-glucopyranose; (Gal)1 (GalNAc)1 (GlcNAc)1 (LFuc)1

> <IUPAC_NAME>
2-acetamido-2-deoxy-alpha-D-galactopyranosyl-(1->3)-[alpha-L-fucopyranosyl-(1->2)]-beta-D-galactopyranosyl-(1->4)-2-acetamido-2-deoxy-D-glucopyranose

> <FORMULA>
C28H48N2O20

> <MASS>
732.68210

> <MONOISOTOPIC_MASS>
732.28004

> <CHARGE>
0

> <SMILES>
C[C@@H]1O[C@@H](O[C@H]2[C@@H](O[C@H](CO)[C@H](O)[C@@H]2O[C@H]2O[C@H](CO)[C@H](O)[C@H](O)[C@H]2NC(C)=O)O[C@H]2[C@H](O)[C@@H](NC(C)=O)C(O)O[C@@H]2CO)[C@@H](O)[C@H](O)[C@@H]1O

> <INCHI>
InChI=1S/C28H48N2O20/c1-7-15(36)20(41)21(42)27(44-7)50-24-23(49-26-14(30-9(3)35)18(39)16(37)10(4-31)46-26)17(38)11(5-32)47-28(24)48-22-12(6-33)45-25(43)13(19(22)40)29-8(2)34/h7,10-28,31-33,36-43H,4-6H2,1-3H3,(H,29,34)(H,30,35)/t7-,10+,11+,12+,13+,14+,15+,16-,17-,18+,19+,20+,21-,22+,23-,24+,25?,26+,27-,28-/m0/s1

> <INCHIKEY>
KLYMNJGDFGXFHU-DDATYIFBSA-N

> <REAXYS_REGISTRY_NUMBER>
5216526

> <KEGG_GLYCAN_ACCESSION>
G00440

> <PUBMED_CITATION>
16133833; 2458640; 4104425

$$$$

Marvin  06281110512D          

 50 53  0  0  1  0            999 V2000
   10.8568   -4.7628    0.0000 C   0  0  1  0  0  0  0  0  0  0  0  0
   10.8568   -5.5878    0.0000 C   0  0  1  0  0  0  0  0  0  0  0  0
   10.1424   -4.3503    0.0000 O   0  0  0  0  0  0  0  0  0  0  0  0
   10.1424   -6.0003    0.0000 C   0  0  2  0  0  0  0  0  0  0  0  0
    9.4280   -4.7628    0.0000 C   0  0  1  0  0  0  0  0  0  0  0  0
    9.4280   -5.5878    0.0000 C   0  0  2  0  0  0  0  0  0  0  0  0
   11.5713   -4.3503    0.0000 O   0  0  0  0  0  0  0  0  0  0  0  0
   11.5713   -6.0003    0.0000 O   0  0  0  0  0  0  0  0  0  0  0  0
   10.1424   -6.8252    0.0000 O   0  0  0  0  0  0  0  0  0  0  0  0
    8.7134   -6.0003    0.0000 O   0  0  0  0  0  0  0  0  0  0  0  0
    8.7134   -4.3503    0.0000 C   0  0  0  0  0  0  0  0  0  0  0  0
    7.9991   -4.7628    0.0000 O   0  0  0  0  0  0  0  0  0  0  0  0
    9.4280   -7.2377    0.0000 C   0  0  2  0  0  0  0  0  0  0  0  0
    9.4280   -8.0627    0.0000 C   0  0  1  0  0  0  0  0  0  0  0  0
    8.7134   -6.8252    0.0000 O   0  0  0  0  0  0  0  0  0  0  0  0
    8.7134   -8.4751    0.0000 C   0  0  2  0  0  0  0  0  0  0  0  0
    7.9991   -7.2377    0.0000 C   0  0  1  0  0  0  0  0  0  0  0  0
    7.9991   -8.0627    0.0000 C   0  0  2  0  0  0  0  0  0  0  0  0
   10.1424   -8.4751    0.0000 N   0  0  0  0  0  0  0  0  0  0  0  0
    8.7134   -9.3001    0.0000 O   0  0  0  0  0  0  0  0  0  0  0  0
    7.2846   -8.4751    0.0000 O   0  0  0  0  0  0  0  0  0  0  0  0
    7.2846   -6.8252    0.0000 C   0  0  0  0  0  0  0  0  0  0  0  0
    6.5700   -7.2377    0.0000 O   0  0  0  0  0  0  0  0  0  0  0  0
   12.2857   -7.2377    0.0000 O   0  0  0  0  0  0  0  0  0  0  0  0
   13.0001   -7.6502    0.0000 C   0  0  2  0  0  0  0  0  0  0  0  0
   12.2857   -6.4127    0.0000 C   0  0  2  0  0  0  0  0  0  0  0  0
   13.0001   -6.0002    0.0000 C   0  0  2  0  0  0  0  0  0  0  0  0
   13.7147   -6.4128    0.0000 C   0  0  1  0  0  0  0  0  0  0  0  0
   13.7147   -7.2378    0.0000 C   0  0  2  0  0  0  0  0  0  0  0  0
   13.0004   -5.1753    0.0000 O   0  0  0  0  0  0  0  0  0  0  0  0
   14.4291   -6.0003    0.0000 O   0  0  0  0  0  0  0  0  0  0  0  0
   14.4291   -7.6502    0.0000 O   0  0  0  0  0  0  0  0  0  0  0  0
   13.0001   -8.4752    0.0000 C   0  0  0  0  0  0  0  0  0  0  0  0
   10.1424   -9.3001    0.0000 C   0  0  0  0  0  0  0  0  0  0  0  0
   10.8569   -9.7125    0.0000 O   0  0  0  0  0  0  0  0  0  0  0  0
    9.4280   -9.7126    0.0000 C   0  0  0  0  0  0  0  0  0  0  0  0
   13.0004   -1.8754    0.0000 O   0  0  0  0  0  0  0  0  0  0  0  0
   12.2859   -2.2879    0.0000 C   0  0  2  0  0  0  0  0  0  0  0  0
   12.2859   -3.1129    0.0000 C   0  0  1  0  0  0  0  0  0  0  0  0
   11.5713   -1.8754    0.0000 O   0  0  0  0  0  0  0  0  0  0  0  0
   11.5713   -3.5253    0.0000 C   0  0  2  0  0  0  0  0  0  0  0  0
   10.8569   -2.2879    0.0000 C   0  0  1  0  0  0  0  0  0  0  0  0
   10.8569   -3.1129    0.0000 C   0  0  2  0  0  0  0  0  0  0  0  0
   13.0004   -3.5253    0.0000 N   0  0  0  0  0  0  0  0  0  0  0  0
   10.1425   -3.5253    0.0000 O   0  0  0  0  0  0  0  0  0  0  0  0
   10.1425   -1.8754    0.0000 C   0  0  0  0  0  0  0  0  0  0  0  0
    9.4279   -2.2879    0.0000 O   0  0  0  0  0  0  0  0  0  0  0  0
   13.7147   -3.1128    0.0000 C   0  0  0  0  0  0  0  0  0  0  0  0
   13.7147   -2.2879    0.0000 O   0  0  0  0  0  0  0  0  0  0  0  0
   14.4292   -3.5253    0.0000 C   0  0  0  0  0  0  0  0  0  0  0  0
  1  2  1  0  0  0  0
  1  3  1  0  0  0  0
  2  4  1  0  0  0  0
  3  5  1  0  0  0  0
  4  6  1  0  0  0  0
  5  6  1  0  0  0  0
  1  7  1  1  0  0  0
  2  8  1  6  0  0  0
  4  9  1  1  0  0  0
  6 10  1  1  0  0  0
  5 11  1  1  0  0  0
 12 11  1  0  0  0  0
 13 14  1  0  0  0  0
 13 15  1  0  0  0  0
 14 16  1  0  0  0  0
 15 17  1  0  0  0  0
 16 18  1  0  0  0  0
 17 18  1  0  0  0  0
 13  9  1  6  0  0  0
 14 19  1  6  0  0  0
 16 20  1  1  0  0  0
 18 21  1  1  0  0  0
 17 22  1  1  0  0  0
 23 22  1  0  0  0  0
 25 24  1  0  0  0  0
 26 24  1  0  0  0  0
 26  8  1  1  0  0  0
 26 27  1  0  0  0  0
 27 30  1  1  0  0  0
 27 28  1  0  0  0  0
 28 31  1  6  0  0  0
 28 29  1  0  0  0  0
 29 25  1  0  0  0  0
 29 32  1  6  0  0  0
 25 33  1  6  0  0  0
 35 34  2  0  0  0  0
 36 34  1  0  0  0  0
 19 34  1  0  0  0  0
 38 39  1  0  0  0  0
 38 40  1  0  0  0  0
 39 41  1  0  0  0  0
 40 42  1  0  0  0  0
 41 43  1  0  0  0  0
 42 43  1  0  0  0  0
 38 37  1  6  0  0  0
 39 44  1  6  0  0  0
 41  7  1  1  0  0  0
 43 45  1  1  0  0  0
 42 46  1  1  0  0  0
 47 46  1  0  0  0  0
 49 48  2  0  0  0  0
 50 48  1  0  0  0  0
 44 48  1  0  0  0  0
M  END
> <ID>
CHEBI:62454

> <NAME>
alpha-D-GalpNAc-(1->3)-[alpha-L-Fucp-(1->2)]-beta-D-Galp-(1->3)-alpha-D-GalpNAc

> <DEFINITION>
An α-D-GalpNAc-(1→3)-[α-L-Fucp-(1→2)]-β-D-Galp-(1→3)-D-GalpNAc having α-configuration at the reducing end anomeric centre.

> <STAR>
3

> <SYNONYM>
N-acetyl-alpha-D-galactosaminyl-(1->3)-[alpha-L-fucosyl-(1->2)]-beta-D-galactosyl-(1->3)-N-acetyl-alpha-D-galactosamine; GalNAcalpha1-3(Fucalpha1-2)Galbeta1-3GalNAcalpha; GalNAcalpha1,3(Fucalpha1,2)Galbeta1,3GalNAcalpha; blood group A antigen type 3; alpha-D-GalNAc-(1->3)-[alpha-L-Fuc-(1->2)]-beta-D-Gal-(1->3)-alpha-D-GalNAc; 2-acetamido-2-deoxy-alpha-D-galactopyranosyl-(1->3)-[6-deoxy-alpha-L-galactopyranosyl-(1->2)]-beta-D-galactopyranosyl-(1->3)-2-acetamido-2-deoxy-alpha-D-galactopyranose

> <IUPAC_NAME>
2-acetamido-2-deoxy-alpha-D-galactopyranosyl-(1->3)-[alpha-L-fucopyranosyl-(1->2)]-beta-D-galactopyranosyl-(1->3)-2-acetamido-2-deoxy-alpha-D-galactopyranose

> <FORMULA>
C28H48N2O20

> <MASS>
732.68210

> <MONOISOTOPIC_MASS>
732.28004

> <CHARGE>
0

> <SMILES>
C[C@@H]1O[C@@H](O[C@H]2[C@@H](O[C@H](CO)[C@H](O)[C@@H]2O[C@H]2O[C@H](CO)[C@H](O)[C@H](O)[C@H]2NC(C)=O)O[C@H]2[C@@H](O)[C@@H](CO)O[C@H](O)[C@@H]2NC(C)=O)[C@@H](O)[C@H](O)[C@@H]1O

> <INCHI>
InChI=1S/C28H48N2O20/c1-7-15(36)20(41)21(42)27(44-7)50-24-23(49-26-13(29-8(2)34)19(40)16(37)10(4-31)46-26)18(39)12(6-33)47-28(24)48-22-14(30-9(3)35)25(43)45-11(5-32)17(22)38/h7,10-28,31-33,36-43H,4-6H2,1-3H3,(H,29,34)(H,30,35)/t7-,10+,11+,12+,13+,14+,15+,16-,17-,18-,19+,20+,21-,22+,23-,24+,25-,26+,27-,28-/m0/s1

> <INCHIKEY>
OEMMSBBXHGIOBY-NPSXSSTCSA-N

> <PUBMED_CITATION>
2136356; 2458640; 24749871; 7800218

$$$$

Marvin  07011110472D          

 50 53  0  0  1  0            999 V2000
    9.9166   -4.9793    0.0000 C   0  0  1  0  0  0  0  0  0  0  0  0
    9.9166   -5.8043    0.0000 C   0  0  1  0  0  0  0  0  0  0  0  0
    9.2022   -4.5668    0.0000 O   0  0  0  0  0  0  0  0  0  0  0  0
    9.2022   -6.2168    0.0000 C   0  0  2  0  0  0  0  0  0  0  0  0
    8.4878   -4.9793    0.0000 C   0  0  1  0  0  0  0  0  0  0  0  0
    8.4878   -5.8043    0.0000 C   0  0  2  0  0  0  0  0  0  0  0  0
   10.6311   -4.5668    0.0000 O   0  0  0  0  0  0  0  0  0  0  0  0
   10.6311   -6.2168    0.0000 O   0  0  0  0  0  0  0  0  0  0  0  0
    9.2022   -7.0417    0.0000 O   0  0  0  0  0  0  0  0  0  0  0  0
    7.7732   -6.2168    0.0000 O   0  0  0  0  0  0  0  0  0  0  0  0
    7.7732   -4.5668    0.0000 C   0  0  0  0  0  0  0  0  0  0  0  0
    7.0588   -4.9793    0.0000 O   0  0  0  0  0  0  0  0  0  0  0  0
    8.4878   -7.4542    0.0000 C   0  0  2  0  0  0  0  0  0  0  0  0
    8.4878   -8.2792    0.0000 C   0  0  1  0  0  0  0  0  0  0  0  0
    7.7732   -7.0417    0.0000 O   0  0  0  0  0  0  0  0  0  0  0  0
    7.7732   -8.6915    0.0000 C   0  0  2  0  0  0  0  0  0  0  0  0
    7.0588   -7.4542    0.0000 C   0  0  1  0  0  0  0  0  0  0  0  0
    7.0588   -8.2792    0.0000 C   0  0  2  0  0  0  0  0  0  0  0  0
    9.2022   -8.6915    0.0000 N   0  0  0  0  0  0  0  0  0  0  0  0
    7.7732   -9.5166    0.0000 O   0  0  0  0  0  0  0  0  0  0  0  0
    6.3444   -8.6915    0.0000 O   0  0  0  0  0  0  0  0  0  0  0  0
    6.3444   -7.0417    0.0000 C   0  0  0  0  0  0  0  0  0  0  0  0
    5.6298   -7.4542    0.0000 O   0  0  0  0  0  0  0  0  0  0  0  0
    9.2022   -9.5166    0.0000 C   0  0  0  0  0  0  0  0  0  0  0  0
    9.9167   -9.9290    0.0000 O   0  0  0  0  0  0  0  0  0  0  0  0
    8.4878   -9.9291    0.0000 C   0  0  0  0  0  0  0  0  0  0  0  0
   13.4890   -2.9168    0.0000 O   0  0  0  0  0  0  0  0  0  0  0  0
   12.7745   -3.3293    0.0000 C   0  0  1  0  0  0  0  0  0  0  0  0
   12.7745   -4.1543    0.0000 C   0  0  1  0  0  0  0  0  0  0  0  0
   12.0599   -2.9168    0.0000 O   0  0  0  0  0  0  0  0  0  0  0  0
   12.0599   -4.5668    0.0000 C   0  0  2  0  0  0  0  0  0  0  0  0
   11.3455   -3.3293    0.0000 C   0  0  1  0  0  0  0  0  0  0  0  0
   11.3455   -4.1543    0.0000 C   0  0  1  0  0  0  0  0  0  0  0  0
   13.4890   -4.5668    0.0000 N   0  0  0  0  0  0  0  0  0  0  0  0
   10.6311   -2.9168    0.0000 C   0  0  0  0  0  0  0  0  0  0  0  0
    9.9165   -3.3293    0.0000 O   0  0  0  0  0  0  0  0  0  0  0  0
   14.2033   -4.1543    0.0000 C   0  0  0  0  0  0  0  0  0  0  0  0
   14.2033   -3.3293    0.0000 O   0  0  0  0  0  0  0  0  0  0  0  0
   14.9178   -4.5668    0.0000 C   0  0  0  0  0  0  0  0  0  0  0  0
   12.0598   -5.3918    0.0000 O   0  0  0  0  0  0  0  0  0  0  0  0
   10.6310   -7.6458    0.0000 O   0  0  0  0  0  0  0  0  0  0  0  0
   11.0434   -8.3602    0.0000 C   0  0  2  0  0  0  0  0  0  0  0  0
   11.0436   -6.9312    0.0000 C   0  0  2  0  0  0  0  0  0  0  0  0
   11.8685   -6.9312    0.0000 C   0  0  2  0  0  0  0  0  0  0  0  0
   12.2810   -7.6458    0.0000 C   0  0  1  0  0  0  0  0  0  0  0  0
   11.8685   -8.3604    0.0000 C   0  0  2  0  0  0  0  0  0  0  0  0
   12.2813   -6.2170    0.0000 O   0  0  0  0  0  0  0  0  0  0  0  0
   13.1059   -7.6458    0.0000 O   0  0  0  0  0  0  0  0  0  0  0  0
   12.2809   -9.0746    0.0000 O   0  0  0  0  0  0  0  0  0  0  0  0
   10.6309   -9.0746    0.0000 C   0  0  0  0  0  0  0  0  0  0  0  0
  1  2  1  0  0  0  0
  1  3  1  0  0  0  0
  2  4  1  0  0  0  0
  3  5  1  0  0  0  0
  4  6  1  0  0  0  0
  5  6  1  0  0  0  0
  1  7  1  1  0  0  0
  2  8  1  6  0  0  0
  4  9  1  1  0  0  0
  6 10  1  1  0  0  0
  5 11  1  1  0  0  0
 12 11  1  0  0  0  0
 13 14  1  0  0  0  0
 13 15  1  0  0  0  0
 14 16  1  0  0  0  0
 15 17  1  0  0  0  0
 16 18  1  0  0  0  0
 17 18  1  0  0  0  0
 13  9  1  6  0  0  0
 14 19  1  6  0  0  0
 16 20  1  1  0  0  0
 18 21  1  1  0  0  0
 17 22  1  1  0  0  0
 23 22  1  0  0  0  0
 25 24  2  0  0  0  0
 26 24  1  0  0  0  0
 19 24  1  0  0  0  0
 28 29  1  0  0  0  0
 28 30  1  0  0  0  0
 29 31  1  0  0  0  0
 30 32  1  0  0  0  0
 31 33  1  0  0  0  0
 32 33  1  0  0  0  0
 28 27  1  1  0  0  0
 29 34  1  6  0  0  0
 33  7  1  6  0  0  0
 32 35  1  1  0  0  0
 36 35  1  0  0  0  0
 38 37  2  0  0  0  0
 39 37  1  0  0  0  0
 34 37  1  0  0  0  0
 31 40  1  1  0  0  0
 42 41  1  0  0  0  0
 43 41  1  0  0  0  0
 43 44  1  0  0  0  0
 44 47  1  1  0  0  0
 44 45  1  0  0  0  0
 45 48  1  6  0  0  0
 45 46  1  0  0  0  0
 46 42  1  0  0  0  0
 46 49  1  6  0  0  0
 42 50  1  6  0  0  0
 43  8  1  1  0  0  0
M  END
> <ID>
CHEBI:62486

> <NAME>
alpha-D-GalpNAc-(1->3)-[alpha-L-Fucp-(1->2)]-beta-D-Galp-(1->4)-beta-D-GlcpNAc

> <DEFINITION>
A branched amino tetrasaccharide comprising N-acetyl-β-D-glucosamine at the reducing end with a N-acetyl-α-D-galactosaminyl-(1→3)-[α-L-fucosyl-(1→2)]-β-D-galactosyl moiety attached at the 4-position.

> <STAR>
3

> <SYNONYM>
N-acetyl-alpha-D-galactosaminyl-(1->3)-[alpha-L-fucosyl-(1->2)]-beta-D-galactosyl-(1->4)-N-acetyl-beta-D-glucosamine; GalNAcalpha1-3(Fucalpha1-2)Galbeta1-4GlcNAcbeta; GalNAcalpha1,3(Fucalpha1,2)Galbeta1,4GlcNAcbeta; GalNAca1-3(Fuca1-2)Galb1-4GlcNAcb; blood group A type 2 tetrasaccharide; blood group A antigen type 2; alpha-D-GalNAc-(1->3)-[alpha-L-Fuc-(1->2)]-beta-D-Gal-(1->4)-beta-D-GlcNAc; A type 2; 2-acetamido-2-deoxy-alpha-D-galactopyranosyl-(1->3)-[6-deoxy-alpha-L-galactopyranosyl-(1->2)]-beta-D-galactopyranosyl-(1->4)-2-acetamido-2-deoxy-beta-D-glucopyranose

> <IUPAC_NAME>
2-acetamido-2-deoxy-alpha-D-galactopyranosyl-(1->3)-[alpha-L-fucopyranosyl-(1->2)]-beta-D-galactopyranosyl-(1->4)-2-acetamido-2-deoxy-beta-D-glucopyranose

> <FORMULA>
C28H48N2O20

> <MASS>
732.68210

> <MONOISOTOPIC_MASS>
732.28004

> <CHARGE>
0

> <SMILES>
C[C@@H]1O[C@@H](O[C@H]2[C@@H](O[C@H](CO)[C@H](O)[C@@H]2O[C@H]2O[C@H](CO)[C@H](O)[C@H](O)[C@H]2NC(C)=O)O[C@H]2[C@H](O)[C@@H](NC(C)=O)[C@H](O)O[C@@H]2CO)[C@@H](O)[C@H](O)[C@@H]1O

> <INCHI>
InChI=1S/C28H48N2O20/c1-7-15(36)20(41)21(42)27(44-7)50-24-23(49-26-14(30-9(3)35)18(39)16(37)10(4-31)46-26)17(38)11(5-32)47-28(24)48-22-12(6-33)45-25(43)13(19(22)40)29-8(2)34/h7,10-28,31-33,36-43H,4-6H2,1-3H3,(H,29,34)(H,30,35)/t7-,10+,11+,12+,13+,14+,15+,16-,17-,18+,19+,20+,21-,22+,23-,24+,25+,26+,27-,28-/m0/s1

> <INCHIKEY>
KLYMNJGDFGXFHU-MZSBSIPJSA-N

> <PUBMED_CITATION>
10442639; 19443021; 2136356; 24749871; 25568069; 31537530; 7800218; 8737251

$$$$

Marvin  07041114052D          

 46 49  0  0  1  0            999 V2000
   12.0229   -4.0555    0.0000 C   0  0  1  0  0  0  0  0  0  0  0  0
   12.7374   -3.6430    0.0000 C   0  0  2  0  0  0  0  0  0  0  0  0
   12.0229   -4.8802    0.0000 O   0  0  0  0  0  0  0  0  0  0  0  0
   11.3085   -3.6430    0.0000 C   0  0  1  0  0  0  0  0  0  0  0  0
   12.7374   -2.8180    0.0000 C   0  0  0  0  0  0  0  0  0  0  0  0
   11.3085   -2.8180    0.0000 C   0  0  2  0  0  0  0  0  0  0  0  0
   10.5939   -4.0555    0.0000 O   0  0  0  0  0  0  0  0  0  0  0  0
   12.0229   -2.4055    0.0000 O   0  0  0  0  0  0  0  0  0  0  0  0
   13.4517   -2.4055    0.0000 O   0  0  0  0  0  0  0  0  0  0  0  0
   10.5939   -2.4055    0.0000 C   0  0  0  0  0  0  0  0  0  0  0  0
   13.4517   -4.0555    0.0000 N   0  0  0  0  0  0  0  0  0  0  0  0
   14.1662   -3.6430    0.0000 C   0  0  0  0  0  0  0  0  0  0  0  0
   14.8806   -4.0555    0.0000 C   0  0  0  0  0  0  0  0  0  0  0  0
   14.1662   -2.8180    0.0000 O   0  0  0  0  0  0  0  0  0  0  0  0
   10.5939   -1.5805    0.0000 O   0  0  0  0  0  0  0  0  0  0  0  0
    8.4505   -2.8177    0.0000 C   0  0  2  0  0  0  0  0  0  0  0  0
    8.4505   -3.6427    0.0000 C   0  0  1  0  0  0  0  0  0  0  0  0
    9.8795   -3.6430    0.0000 C   0  0  2  0  0  0  0  0  0  0  0  0
    9.8795   -2.8180    0.0000 O   0  0  0  0  0  0  0  0  0  0  0  0
    9.1651   -4.0552    0.0000 C   0  0  2  0  0  0  0  0  0  0  0  0
    9.1651   -2.4052    0.0000 C   0  0  2  0  0  0  0  0  0  0  0  0
    9.1649   -4.8802    0.0000 O   0  0  0  0  0  0  0  0  0  0  0  0
    7.7360   -4.0552    0.0000 O   0  0  0  0  0  0  0  0  0  0  0  0
    7.7361   -2.4055    0.0000 O   0  0  0  0  0  0  0  0  0  0  0  0
    9.1651   -1.5805    0.0000 C   0  0  0  0  0  0  0  0  0  0  0  0
    8.4507   -1.1680    0.0000 O   0  0  0  0  0  0  0  0  0  0  0  0
   11.3083   -6.1177    0.0000 O   0  0  0  0  0  0  0  0  0  0  0  0
   11.3083   -6.9427    0.0000 C   0  0  2  0  0  0  0  0  0  0  0  0
   12.0229   -5.7052    0.0000 C   0  0  2  0  0  0  0  0  0  0  0  0
   12.7373   -6.1177    0.0000 C   0  0  2  0  0  0  0  0  0  0  0  0
   12.7371   -6.9427    0.0000 C   0  0  1  0  0  0  0  0  0  0  0  0
   12.0227   -7.3552    0.0000 C   0  0  2  0  0  0  0  0  0  0  0  0
   13.4517   -5.7054    0.0000 O   0  0  0  0  0  0  0  0  0  0  0  0
   13.4517   -7.3554    0.0000 O   0  0  0  0  0  0  0  0  0  0  0  0
   12.0227   -8.1802    0.0000 O   0  0  0  0  0  0  0  0  0  0  0  0
   10.5937   -7.3552    0.0000 C   0  0  0  0  0  0  0  0  0  0  0  0
    7.7360   -4.8802    0.0000 O   0  0  0  0  0  0  0  0  0  0  0  0
    7.0215   -5.2927    0.0000 C   0  0  2  0  0  0  0  0  0  0  0  0
    8.4505   -5.2928    0.0000 C   0  0  2  0  0  0  0  0  0  0  0  0
    8.4505   -6.1177    0.0000 C   0  0  2  0  0  0  0  0  0  0  0  0
    7.7360   -6.5300    0.0000 C   0  0  1  0  0  0  0  0  0  0  0  0
    7.0215   -6.1177    0.0000 C   0  0  2  0  0  0  0  0  0  0  0  0
    9.1648   -6.5302    0.0000 O   0  0  0  0  0  0  0  0  0  0  0  0
    7.7359   -7.3553    0.0000 O   0  0  0  0  0  0  0  0  0  0  0  0
    6.3070   -6.5302    0.0000 O   0  0  0  0  0  0  0  0  0  0  0  0
    6.3071   -4.8802    0.0000 C   0  0  0  0  0  0  0  0  0  0  0  0
  1  2  1  0  0  0  0
  1  3  1  1  0  0  0
  1  4  1  0  0  0  0
  2  5  1  0  0  0  0
  2 11  1  6  0  0  0
  4  6  1  0  0  0  0
  4  7  1  6  0  0  0
  5  8  1  0  0  0  0
  5  9  1  0  0  0  0
  6 10  1  1  0  0  0
  6  8  1  0  0  0  0
 11 12  1  0  0  0  0
 12 13  1  0  0  0  0
 12 14  2  0  0  0  0
 10 15  1  0  0  0  0
 16 24  1  1  0  0  0
 17 16  1  0  0  0  0
 17 23  1  1  0  0  0
 18 19  1  0  0  0  0
 18 20  1  0  0  0  0
 20 17  1  0  0  0  0
 20 22  1  6  0  0  0
 21 16  1  0  0  0  0
 19 21  1  0  0  0  0
 21 25  1  1  0  0  0
 25 26  1  0  0  0  0
 18  7  1  1  0  0  0
 28 27  1  0  0  0  0
 29 27  1  0  0  0  0
 29  3  1  1  0  0  0
 29 30  1  0  0  0  0
 30 33  1  1  0  0  0
 30 31  1  0  0  0  0
 31 34  1  6  0  0  0
 31 32  1  0  0  0  0
 32 28  1  0  0  0  0
 32 35  1  6  0  0  0
 28 36  1  6  0  0  0
 38 37  1  0  0  0  0
 39 37  1  0  0  0  0
 39 22  1  1  0  0  0
 39 40  1  0  0  0  0
 40 43  1  1  0  0  0
 40 41  1  0  0  0  0
 41 44  1  6  0  0  0
 41 42  1  0  0  0  0
 42 38  1  0  0  0  0
 42 45  1  6  0  0  0
 38 46  1  6  0  0  0
M  END
> <ID>
CHEBI:62507

> <NAME>
alpha-L-Fucp-(1->2)-beta-D-Galp-(1->4)-[alpha-L-Fucp-(1->3)]-D-GlcpNAc

> <DEFINITION>
A branched amino tetrasaccharide consisting of N-acetyl-D-glucosamine at the reducing end having an α-L-fucosyl residue attached at the 3-position and an α-L-fucosyl-(1→2)-β-D-galactosyl moiety attached at the 4-position.

> <STAR>
3

> <SYNONYM>
Le(y) tetrasaccharide; Le(y); Lewis y tetrasaccharide; Lewis y antigen; Lewis Y; Fucalpha1-2Galbeta1-4(Fucalpha1-3)GlcNAc; alpha-L-fucosyl-(1->2)-beta-D-galactosyl-(1->4)-[alpha-L-fucosyl-(1->3)]-N-acetyl-D-glucosamine; alpha-L-Fuc-(1->2)-beta-D-Gal-(1->4)-[alpha-L-Fuc-(1->3)]-D-GlcNAc; alpha-L-Fuc-(1->2)-beta-D-Gal-(1->4)-(alpha-L-Fuc-(1->3))-D-GlcNAc; 6-deoxy-alpha-L-galactopyranosyl-(1->3)-[6-deoxy-alpha-L-galactopyranosyl-(1->2)-beta-D-galactopyranosyl-(1->4)]-2-acetamido-2-deoxy-D-glucopyranose; (Gal)1 (GlcNAc)1 (LFuc)2

> <IUPAC_NAME>
alpha-L-fucopyranosyl-(1->3)-[alpha-L-fucopyranosyl-(1->2)-beta-D-galactopyranosyl-(1->4)]-2-acetamido-2-deoxy-D-glucopyranose

> <FORMULA>
C26H45NO19

> <MASS>
675.63080

> <MONOISOTOPIC_MASS>
675.25858

> <CHARGE>
0

> <SMILES>
C[C@@H]1O[C@@H](O[C@@H]2[C@@H](O)[C@@H](O)[C@@H](CO)O[C@H]2O[C@@H]2[C@@H](CO)OC(O)[C@H](NC(C)=O)[C@H]2O[C@@H]2O[C@@H](C)[C@@H](O)[C@@H](O)[C@@H]2O)[C@@H](O)[C@H](O)[C@@H]1O

> <INCHI>
InChI=1S/C26H45NO19/c1-6-12(31)15(34)18(37)24(40-6)45-21-11(27-8(3)30)23(39)42-10(5-29)20(21)44-26-22(17(36)14(33)9(4-28)43-26)46-25-19(38)16(35)13(32)7(2)41-25/h6-7,9-26,28-29,31-39H,4-5H2,1-3H3,(H,27,30)/t6-,7-,9+,10+,11+,12+,13+,14-,15+,16+,17-,18-,19-,20+,21+,22+,23?,24-,25-,26-/m0/s1

> <INCHIKEY>
SRHNADOZAAWYLV-VIXGDSECSA-N

> <REAXYS_REGISTRY_NUMBER>
9892153

> <KEGG_GLYCAN_ACCESSION>
G00256

> <PUBMED_CITATION>
15388363; 19901987; 21542140; 23724317; 6083446; 6208947

$$$$

Marvin  07041115382D          

 40 42  0  0  1  0            999 V2000
   11.0228   -5.0662    0.0000 C   0  0  1  0  0  0  0  0  0  0  0  0
   11.0228   -5.8912    0.0000 C   0  0  1  0  0  0  0  0  0  0  0  0
   10.3082   -4.6537    0.0000 O   0  0  0  0  0  0  0  0  0  0  0  0
   10.3082   -6.3037    0.0000 C   0  0  2  0  0  0  0  0  0  0  0  0
    9.5937   -5.0662    0.0000 C   0  0  1  0  0  0  0  0  0  0  0  0
    9.5937   -5.8912    0.0000 C   0  0  2  0  0  0  0  0  0  0  0  0
   11.7371   -4.6537    0.0000 O   0  0  0  0  0  0  0  0  0  0  0  0
   11.7371   -6.3037    0.0000 O   0  0  0  0  0  0  0  0  0  0  0  0
   10.3082   -7.1286    0.0000 O   0  0  0  0  0  0  0  0  0  0  0  0
    8.8792   -6.3037    0.0000 O   0  0  0  0  0  0  0  0  0  0  0  0
    8.8792   -4.6537    0.0000 C   0  0  0  0  0  0  0  0  0  0  0  0
    8.1649   -5.0662    0.0000 O   0  0  0  0  0  0  0  0  0  0  0  0
    9.5938   -7.5412    0.0000 C   0  0  2  0  0  0  0  0  0  0  0  0
    9.5938   -8.3662    0.0000 C   0  0  1  0  0  0  0  0  0  0  0  0
    8.8792   -7.1288    0.0000 O   0  0  0  0  0  0  0  0  0  0  0  0
    8.8793   -8.7786    0.0000 C   0  0  2  0  0  0  0  0  0  0  0  0
    8.1647   -7.5413    0.0000 C   0  0  1  0  0  0  0  0  0  0  0  0
    8.1649   -8.3662    0.0000 C   0  0  2  0  0  0  0  0  0  0  0  0
   10.3083   -8.7786    0.0000 N   0  0  0  0  0  0  0  0  0  0  0  0
    8.8791   -9.6036    0.0000 O   0  0  0  0  0  0  0  0  0  0  0  0
    7.4504   -8.7786    0.0000 O   0  0  0  0  0  0  0  0  0  0  0  0
    7.4503   -7.1288    0.0000 C   0  0  0  0  0  0  0  0  0  0  0  0
    6.7358   -7.5413    0.0000 O   0  0  0  0  0  0  0  0  0  0  0  0
   10.3083   -9.6035    0.0000 C   0  0  0  0  0  0  0  0  0  0  0  0
   11.0228  -10.0160    0.0000 O   0  0  0  0  0  0  0  0  0  0  0  0
    9.5938  -10.0161    0.0000 C   0  0  0  0  0  0  0  0  0  0  0  0
   13.8807   -3.4162    0.0000 C   0  0  0  0  0  0  0  0  0  0  0  0
   13.8807   -4.2412    0.0000 C   0  0  1  0  0  0  0  0  0  0  0  0
   13.1662   -3.0037    0.0000 O   0  0  0  0  0  0  0  0  0  0  0  0
   13.1662   -4.6537    0.0000 C   0  0  2  0  0  0  0  0  0  0  0  0
   12.4516   -3.4162    0.0000 C   0  0  1  0  0  0  0  0  0  0  0  0
   12.4516   -4.2412    0.0000 C   0  0  1  0  0  0  0  0  0  0  0  0
   14.5952   -3.0037    0.0000 O   0  0  0  0  0  0  0  0  0  0  0  0
   14.5952   -4.6537    0.0000 N   0  0  0  0  0  0  0  0  0  0  0  0
   13.1662   -5.4788    0.0000 O   0  0  0  0  0  0  0  0  0  0  0  0
   11.7371   -3.0037    0.0000 C   0  0  0  0  0  0  0  0  0  0  0  0
   11.0228   -3.4162    0.0000 O   0  0  0  0  0  0  0  0  0  0  0  0
   14.5952   -5.4788    0.0000 C   0  0  0  0  0  0  0  0  0  0  0  0
   15.3097   -5.8913    0.0000 O   0  0  0  0  0  0  0  0  0  0  0  0
   13.8807   -5.8913    0.0000 C   0  0  0  0  0  0  0  0  0  0  0  0
  1  2  1  0  0  0  0
  1  3  1  0  0  0  0
  2  4  1  0  0  0  0
  3  5  1  0  0  0  0
  4  6  1  0  0  0  0
  5  6  1  0  0  0  0
  1  7  1  1  0  0  0
  2  8  1  6  0  0  0
  4  9  1  1  0  0  0
  6 10  1  1  0  0  0
  5 11  1  1  0  0  0
 12 11  1  0  0  0  0
 13 14  1  0  0  0  0
 13 15  1  0  0  0  0
 14 16  1  0  0  0  0
 15 17  1  0  0  0  0
 16 18  1  0  0  0  0
 17 18  1  0  0  0  0
 14 19  1  6  0  0  0
 16 20  1  1  0  0  0
 18 21  1  1  0  0  0
 17 22  1  1  0  0  0
 23 22  1  0  0  0  0
 25 24  2  0  0  0  0
 26 24  1  0  0  0  0
 19 24  1  0  0  0  0
 13  9  1  6  0  0  0
 27 28  1  0  0  0  0
 27 29  1  0  0  0  0
 28 30  1  0  0  0  0
 29 31  1  0  0  0  0
 30 32  1  0  0  0  0
 31 32  1  0  0  0  0
 27 33  1  0  0  0  0
 28 34  1  6  0  0  0
 30 35  1  1  0  0  0
 32  7  1  6  0  0  0
 31 36  1  1  0  0  0
 37 36  1  0  0  0  0
 39 38  2  0  0  0  0
 40 38  1  0  0  0  0
 34 38  1  0  0  0  0
M  END
> <ID>
CHEBI:62515

> <NAME>
alpha-D-GalpNAc-(1->3)-beta-D-Galp-(1->4)-D-GlcpNAc

> <DEFINITION>
A amino trisaccharide consisting of N-acetyl-D-glucosamine having an N-acetyl-α-D-galactosaminyl-(1→3)-β-D-galactosyl group attached at the 4-position.

> <STAR>
3

> <SYNONYM>
N-acetyl-alpha-D-galactosaminyl-(1->3)-beta-D-galactosyl-(1->4)-N-acetyl-D-glucosamine; alphaGalNAc(alpha1->3)Gal-(beta1->4)GlcNAc; alpha-D-GalNAc-(1->3)-beta-D-Gal-(1->4)-D-GlcNAc; (Gal)1 (GalNAc)1 (GlcNAc)1

> <IUPAC_NAME>
2-acetamido-2-deoxy-alpha-D-galactopyranosyl-(1->3)-beta-D-galactopyranosyl-(1->4)-2-acetamido-2-deoxy-D-glucopyranose

> <FORMULA>
C22H38N2O16

> <MASS>
586.54090

> <MONOISOTOPIC_MASS>
586.22213

> <CHARGE>
0

> <SMILES>
CC(=O)N[C@H]1C(O)O[C@H](CO)[C@@H](O[C@@H]2O[C@H](CO)[C@H](O)[C@H](O[C@H]3O[C@H](CO)[C@H](O)[C@H](O)[C@H]3NC(C)=O)[C@H]2O)[C@@H]1O

> <INCHI>
InChI=1S/C22H38N2O16/c1-6(28)23-11-16(33)18(10(5-27)36-20(11)35)39-22-17(34)19(14(31)9(4-26)38-22)40-21-12(24-7(2)29)15(32)13(30)8(3-25)37-21/h8-22,25-27,30-35H,3-5H2,1-2H3,(H,23,28)(H,24,29)/t8-,9-,10-,11-,12-,13+,14+,15-,16-,17-,18-,19+,20?,21-,22+/m1/s1

> <INCHIKEY>
LJYGCZXFBOCZHA-JGIIURCWSA-N

> <KEGG_GLYCAN_ACCESSION>
G00939

> <PUBMED_CITATION>
6172274

$$$$

Marvin  07041115562D          

 40 42  0  0  1  0            999 V2000
   11.9666   -6.2389    0.0000 C   0  0  1  0  0  0  0  0  0  0  0  0
   11.9666   -7.0639    0.0000 C   0  0  1  0  0  0  0  0  0  0  0  0
   11.2521   -5.8264    0.0000 O   0  0  0  0  0  0  0  0  0  0  0  0
   11.2521   -7.4763    0.0000 C   0  0  2  0  0  0  0  0  0  0  0  0
   10.5376   -6.2389    0.0000 C   0  0  1  0  0  0  0  0  0  0  0  0
   10.5376   -7.0639    0.0000 C   0  0  2  0  0  0  0  0  0  0  0  0
   12.6810   -7.4763    0.0000 O   0  0  0  0  0  0  0  0  0  0  0  0
   11.2521   -8.3013    0.0000 O   0  0  0  0  0  0  0  0  0  0  0  0
    9.8232   -7.4763    0.0000 O   0  0  0  0  0  0  0  0  0  0  0  0
    9.8232   -5.8264    0.0000 C   0  0  0  0  0  0  0  0  0  0  0  0
    9.1089   -6.2389    0.0000 O   0  0  0  0  0  0  0  0  0  0  0  0
   10.5378   -8.7138    0.0000 C   0  0  2  0  0  0  0  0  0  0  0  0
   10.5378   -9.5388    0.0000 C   0  0  1  0  0  0  0  0  0  0  0  0
    9.8232   -8.3014    0.0000 O   0  0  0  0  0  0  0  0  0  0  0  0
    9.8232   -9.9511    0.0000 C   0  0  2  0  0  0  0  0  0  0  0  0
    9.1086   -8.7140    0.0000 C   0  0  1  0  0  0  0  0  0  0  0  0
    9.1089   -9.5388    0.0000 C   0  0  2  0  0  0  0  0  0  0  0  0
   11.2522   -9.9511    0.0000 N   0  0  0  0  0  0  0  0  0  0  0  0
    9.8230  -10.7761    0.0000 O   0  0  0  0  0  0  0  0  0  0  0  0
    8.3944   -9.9511    0.0000 O   0  0  0  0  0  0  0  0  0  0  0  0
    8.3943   -8.3015    0.0000 C   0  0  0  0  0  0  0  0  0  0  0  0
    7.6799   -8.7139    0.0000 O   0  0  0  0  0  0  0  0  0  0  0  0
   12.6811   -5.8264    0.0000 O   0  0  0  0  0  0  0  0  0  0  0  0
   11.2521   -5.0014    0.0000 O   0  0  0  0  0  0  0  0  0  0  0  0
   13.3956   -3.7640    0.0000 C   0  0  0  0  0  0  0  0  0  0  0  0
   13.3956   -4.5890    0.0000 C   0  0  1  0  0  0  0  0  0  0  0  0
   12.6811   -3.3515    0.0000 O   0  0  0  0  0  0  0  0  0  0  0  0
   12.6811   -5.0014    0.0000 C   0  0  2  0  0  0  0  0  0  0  0  0
   11.9666   -3.7640    0.0000 C   0  0  1  0  0  0  0  0  0  0  0  0
   11.9666   -4.5890    0.0000 C   0  0  1  0  0  0  0  0  0  0  0  0
   14.1100   -3.3515    0.0000 O   0  0  0  0  0  0  0  0  0  0  0  0
   14.1100   -5.0014    0.0000 N   0  0  0  0  0  0  0  0  0  0  0  0
   11.2521   -3.3515    0.0000 C   0  0  0  0  0  0  0  0  0  0  0  0
   10.5377   -3.7640    0.0000 O   0  0  0  0  0  0  0  0  0  0  0  0
   14.8245   -4.5889    0.0000 C   0  0  0  0  0  0  0  0  0  0  0  0
   14.8245   -3.7639    0.0000 O   0  0  0  0  0  0  0  0  0  0  0  0
   15.5390   -5.0014    0.0000 C   0  0  0  0  0  0  0  0  0  0  0  0
   11.9667   -9.5386    0.0000 C   0  0  0  0  0  0  0  0  0  0  0  0
   11.9666   -8.7136    0.0000 O   0  0  0  0  0  0  0  0  0  0  0  0
   12.6812   -9.9511    0.0000 C   0  0  0  0  0  0  0  0  0  0  0  0
  1  2  1  0  0  0  0
  1  3  1  0  0  0  0
  2  4  1  0  0  0  0
  3  5  1  0  0  0  0
  4  6  1  0  0  0  0
  5  6  1  0  0  0  0
  2  7  1  6  0  0  0
  4  8  1  1  0  0  0
  6  9  1  1  0  0  0
  5 10  1  1  0  0  0
 11 10  1  0  0  0  0
 12 13  1  0  0  0  0
 12 14  1  0  0  0  0
 13 15  1  0  0  0  0
 14 16  1  0  0  0  0
 15 17  1  0  0  0  0
 16 17  1  0  0  0  0
 13 18  1  6  0  0  0
 15 19  1  1  0  0  0
 17 20  1  1  0  0  0
 16 21  1  1  0  0  0
 22 21  1  0  0  0  0
 12  8  1  6  0  0  0
  1 23  1  1  0  0  0
 25 26  1  0  0  0  0
 25 27  1  0  0  0  0
 26 28  1  0  0  0  0
 27 29  1  0  0  0  0
 28 30  1  0  0  0  0
 29 30  1  0  0  0  0
 25 31  1  0  0  0  0
 26 32  1  6  0  0  0
 28 23  1  1  0  0  0
 30 24  1  6  0  0  0
 29 33  1  1  0  0  0
 34 33  1  0  0  0  0
 36 35  2  0  0  0  0
 37 35  1  0  0  0  0
 32 35  1  0  0  0  0
 39 38  2  0  0  0  0
 40 38  1  0  0  0  0
 18 38  1  0  0  0  0
M  END
> <ID>
CHEBI:62516

> <NAME>
alpha-D-GalpNAc-(1->3)-beta-D-Galp-(1->3)-D-GlcpNAc

> <DEFINITION>
A amino trisaccharide consisting of N-acetyl-D-glucosamine having an N-acetyl-α-D-galactosaminyl-(1→3)-β-D-galactosyl group attached at the 3-position.

> <STAR>
3

> <SYNONYM>
N-acetyl-alpha-D-galactosaminyl-(1->3)-beta-D-galactosyl-(1->3)-N-acetyl-D-glucosamine; GalNAc(alpha1->3)Gal-(beta1->3)GlcNAc; alpha-D-GalNAc-(1->3)-beta-D-Gal-(1->3)-D-GlcNAc; (Gal)1 (GalNAc)1 (GlcNAc)1

> <IUPAC_NAME>
2-acetamido-2-deoxy-alpha-D-galactopyranosyl-(1->3)-beta-D-galactopyranosyl-(1->3)-2-acetamido-2-deoxy-D-glucopyranose

> <FORMULA>
C22H38N2O16

> <MASS>
586.54090

> <MONOISOTOPIC_MASS>
586.22213

> <CHARGE>
0

> <SMILES>
CC(=O)N[C@@H]1[C@@H](O)[C@@H](O)[C@@H](CO)O[C@@H]1O[C@H]1[C@@H](O)[C@@H](CO)O[C@@H](O[C@H]2[C@H](O)[C@@H](CO)OC(O)[C@@H]2NC(C)=O)[C@@H]1O

> <INCHI>
InChI=1S/C22H38N2O16/c1-6(28)23-11-16(33)13(30)8(3-25)37-21(11)40-19-15(32)10(5-27)38-22(17(19)34)39-18-12(24-7(2)29)20(35)36-9(4-26)14(18)31/h8-22,25-27,30-35H,3-5H2,1-2H3,(H,23,28)(H,24,29)/t8-,9-,10-,11-,12-,13+,14-,15+,16-,17-,18-,19+,20?,21-,22+/m1/s1

> <INCHIKEY>
UHXCBMGDLOQUHX-NMGGTLIMSA-N

> <REAXYS_REGISTRY_NUMBER>
5690267

> <KEGG_GLYCAN_ACCESSION>
G00658

> <PUBMED_CITATION>
6172274

$$$$

Marvin  07041116222D          

 40 41  0  0  1  0            999 V2000
   11.9666   -6.2389    0.0000 C   0  0  1  0  0  0  0  0  0  0  0  0
   11.9666   -7.0639    0.0000 C   0  0  1  0  0  0  0  0  0  0  0  0
   11.2521   -5.8264    0.0000 O   0  0  0  0  0  0  0  0  0  0  0  0
   11.2521   -7.4763    0.0000 C   0  0  2  0  0  0  0  0  0  0  0  0
   10.5376   -6.2389    0.0000 C   0  0  1  0  0  0  0  0  0  0  0  0
   10.5376   -7.0639    0.0000 C   0  0  2  0  0  0  0  0  0  0  0  0
   12.6810   -7.4763    0.0000 O   0  0  0  0  0  0  0  0  0  0  0  0
   11.2521   -8.3013    0.0000 O   0  0  0  0  0  0  0  0  0  0  0  0
    9.8232   -7.4763    0.0000 O   0  0  0  0  0  0  0  0  0  0  0  0
    9.8232   -5.8264    0.0000 C   0  0  0  0  0  0  0  0  0  0  0  0
    9.1089   -6.2389    0.0000 O   0  0  0  0  0  0  0  0  0  0  0  0
   10.5378   -8.7138    0.0000 C   0  0  2  0  0  0  0  0  0  0  0  0
   10.5378   -9.5388    0.0000 C   0  0  1  0  0  0  0  0  0  0  0  0
    9.8232   -8.3014    0.0000 O   0  0  0  0  0  0  0  0  0  0  0  0
    9.8232   -9.9511    0.0000 C   0  0  2  0  0  0  0  0  0  0  0  0
    9.1086   -8.7140    0.0000 C   0  0  1  0  0  0  0  0  0  0  0  0
    9.1089   -9.5388    0.0000 C   0  0  2  0  0  0  0  0  0  0  0  0
   11.2522   -9.9511    0.0000 N   0  0  0  0  0  0  0  0  0  0  0  0
    9.8230  -10.7761    0.0000 O   0  0  0  0  0  0  0  0  0  0  0  0
    8.3944   -9.9511    0.0000 O   0  0  0  0  0  0  0  0  0  0  0  0
    8.3943   -8.3015    0.0000 C   0  0  0  0  0  0  0  0  0  0  0  0
    7.6799   -8.7139    0.0000 O   0  0  0  0  0  0  0  0  0  0  0  0
   12.6811   -5.8264    0.0000 O   0  0  0  0  0  0  0  0  0  0  0  0
   11.9667   -9.5386    0.0000 C   0  0  0  0  0  0  0  0  0  0  0  0
   11.9666   -8.7136    0.0000 O   0  0  0  0  0  0  0  0  0  0  0  0
   12.6812   -9.9511    0.0000 C   0  0  0  0  0  0  0  0  0  0  0  0
   11.2521   -5.0014    0.0000 O   0  0  0  0  0  0  0  0  0  0  0  0
   13.3956   -3.7640    0.0000 C   0  0  0  0  0  0  0  0  0  0  0  0
   13.3956   -4.5889    0.0000 C   0  0  1  0  0  0  0  0  0  0  0  0
   12.6811   -3.3515    0.0000 O   0  0  0  0  0  0  0  0  0  0  0  0
   12.6811   -5.0014    0.0000 C   0  0  2  0  0  0  0  0  0  0  0  0
   11.9666   -3.7640    0.0000 C   0  0  1  0  0  0  0  0  0  0  0  0
   11.9666   -4.5889    0.0000 C   0  0  2  0  0  0  0  0  0  0  0  0
   14.1100   -3.3515    0.0000 O   0  0  0  0  0  0  0  0  0  0  0  0
   14.1100   -5.0014    0.0000 N   0  0  0  0  0  0  0  0  0  0  0  0
   11.2521   -3.3515    0.0000 C   0  0  0  0  0  0  0  0  0  0  0  0
   10.5377   -3.7640    0.0000 O   0  0  0  0  0  0  0  0  0  0  0  0
   14.8245   -4.5889    0.0000 C   0  0  0  0  0  0  0  0  0  0  0  0
   14.8245   -3.7639    0.0000 O   0  0  0  0  0  0  0  0  0  0  0  0
   15.5390   -5.0014    0.0000 C   0  0  0  0  0  0  0  0  0  0  0  0
  1  2  1  0  0  0  0
  1  3  1  0  0  0  0
  2  4  1  0  0  0  0
  3  5  1  0  0  0  0
  4  6  1  0  0  0  0
  5  6  1  0  0  0  0
  2  7  1  6  0  0  0
  4  8  1  1  0  0  0
  6  9  1  1  0  0  0
  5 10  1  1  0  0  0
 11 10  1  0  0  0  0
 12 13  1  0  0  0  0
 12 14  1  0  0  0  0
 13 15  1  0  0  0  0
 14 16  1  0  0  0  0
 15 17  1  0  0  0  0
 16 17  1  0  0  0  0
 13 18  1  6  0  0  0
 15 19  1  1  0  0  0
 17 20  1  1  0  0  0
 16 21  1  1  0  0  0
 22 21  1  0  0  0  0
 12  8  1  6  0  0  0
  1 23  1  1  0  0  0
 25 24  2  0  0  0  0
 26 24  1  0  0  0  0
 18 24  1  0  0  0  0
 28 29  1  0  0  0  0
 29 31  1  0  0  0  0
 32 30  1  1  0  0  0
 31 33  1  0  0  0  0
 32 33  1  0  0  0  0
 28 34  1  0  0  0  0
 29 35  1  6  0  0  0
 33 27  1  1  0  0  0
 32 36  1  0  0  0  0
 37 36  1  0  0  0  0
 39 38  2  0  0  0  0
 40 38  1  0  0  0  0
 35 38  1  0  0  0  0
 31 23  1  1  0  0  0
M  END
> <ID>
CHEBI:62518

> <NAME>
alpha-D-GalpNAc-(1->3)-beta-D-Galp-(1->3)-D-GalNAc-ol

> <DEFINITION>
A glycoside consisting of N-acetyl-D-galactosaminitol having an N-acetyl-α-D-galactosaminyl-(1→3)-β-D-galactosyl group attached at the 3-position.

> <STAR>
3

> <SYNONYM>
N-acetyl-alpha-D-galactosaminyl-(1->3)-beta-D-galactosyl-(1->3)-N-acetyl-D-galactosaminitol; GalNAc(alpha1->3)Gal-(beta1->3)GalNAcOH; alpha-D-GalpNAc-(1->3)-beta-D-Galp-(1->3)-D-GalNAc-OH; alpha-D-GalNAc-(1->3)-beta-D-Gal-(1->3)-D-GalNAc-ol; alpha-D-GalNAc-(1->3)-beta-D-Gal-(1->3)-D-GalNAc-OH

> <IUPAC_NAME>
2-acetamido-2-deoxy-alpha-D-galactopyranosyl-(1->3)-beta-D-galactopyranosyl-(1->3)-2-acetamido-2-deoxy-D-galactitol

> <FORMULA>
C22H40N2O16

> <MASS>
588.55680

> <MONOISOTOPIC_MASS>
588.23778

> <CHARGE>
0

> <SMILES>
CC(=O)N[C@@H](CO)[C@@H](O[C@@H]1O[C@H](CO)[C@H](O)[C@H](O[C@H]2O[C@H](CO)[C@H](O)[C@H](O)[C@H]2NC(C)=O)[C@H]1O)[C@@H](O)[C@H](O)CO

> <INCHI>
InChI=1S/C22H40N2O16/c1-7(29)23-9(3-25)19(14(32)10(31)4-26)39-22-18(36)20(16(34)12(6-28)38-22)40-21-13(24-8(2)30)17(35)15(33)11(5-27)37-21/h9-22,25-28,31-36H,3-6H2,1-2H3,(H,23,29)(H,24,30)/t9-,10+,11+,12+,13+,14-,15-,16-,17+,18+,19+,20-,21+,22-/m0/s1

> <INCHIKEY>
BGMVEFVQHYRGTF-DHOLGAKPSA-N

> <PUBMED_CITATION>
6172274

$$$$

Marvin  07061115462D          

 45 48  0  0  1  0            999 V2000
   18.5049   -6.3520    0.0000 O   0  0  0  0  0  0  0  0  0  0  0  0
   17.7905   -6.7646    0.0000 C   0  0  0  0  0  0  0  0  0  0  0  0
   17.7905   -7.5896    0.0000 C   0  0  2  0  0  0  0  0  0  0  0  0
   17.0759   -6.3521    0.0000 O   0  0  0  0  0  0  0  0  0  0  0  0
   17.0759   -8.0021    0.0000 C   0  0  2  0  0  0  0  0  0  0  0  0
   16.3615   -6.7646    0.0000 C   0  0  1  0  0  0  0  0  0  0  0  0
   16.3615   -7.5896    0.0000 C   0  0  1  0  0  0  0  0  0  0  0  0
   18.5049   -8.0021    0.0000 O   0  0  0  0  0  0  0  0  0  0  0  0
   17.0759   -8.8271    0.0000 O   0  0  0  0  0  0  0  0  0  0  0  0
   15.6470   -8.0021    0.0000 O   0  0  0  0  0  0  0  0  0  0  0  0
   15.6470   -6.3521    0.0000 C   0  0  0  0  0  0  0  0  0  0  0  0
   14.9326   -6.7646    0.0000 O   0  0  0  0  0  0  0  0  0  0  0  0
   14.2182   -7.1771    0.0000 C   0  0  2  0  0  0  0  0  0  0  0  0
   14.2182   -8.0021    0.0000 C   0  0  2  0  0  0  0  0  0  0  0  0
   13.5036   -6.7646    0.0000 O   0  0  0  0  0  0  0  0  0  0  0  0
   13.5036   -8.4146    0.0000 C   0  0  2  0  0  0  0  0  0  0  0  0
   12.7892   -7.1771    0.0000 C   0  0  1  0  0  0  0  0  0  0  0  0
   12.7892   -8.0021    0.0000 C   0  0  1  0  0  0  0  0  0  0  0  0
   14.9326   -8.4146    0.0000 O   0  0  0  0  0  0  0  0  0  0  0  0
   13.5036   -9.2396    0.0000 O   0  0  0  0  0  0  0  0  0  0  0  0
   12.0747   -8.4146    0.0000 O   0  0  0  0  0  0  0  0  0  0  0  0
   12.0747   -6.7646    0.0000 C   0  0  0  0  0  0  0  0  0  0  0  0
   11.3602   -7.1771    0.0000 O   0  0  0  0  0  0  0  0  0  0  0  0
   10.6458   -7.5896    0.0000 C   0  0  2  0  0  0  0  0  0  0  0  0
   10.6458   -8.4146    0.0000 C   0  0  2  0  0  0  0  0  0  0  0  0
    9.9312   -7.1771    0.0000 O   0  0  0  0  0  0  0  0  0  0  0  0
    9.9312   -8.8271    0.0000 C   0  0  2  0  0  0  0  0  0  0  0  0
    9.2168   -7.5896    0.0000 C   0  0  1  0  0  0  0  0  0  0  0  0
    9.2168   -8.4146    0.0000 C   0  0  1  0  0  0  0  0  0  0  0  0
   11.3602   -8.8271    0.0000 O   0  0  0  0  0  0  0  0  0  0  0  0
    9.9312   -9.6521    0.0000 O   0  0  0  0  0  0  0  0  0  0  0  0
    8.5023   -8.8271    0.0000 O   0  0  0  0  0  0  0  0  0  0  0  0
    8.5023   -7.1771    0.0000 C   0  0  0  0  0  0  0  0  0  0  0  0
    7.7879   -7.5896    0.0000 O   0  0  0  0  0  0  0  0  0  0  0  0
    7.0734   -8.0021    0.0000 C   0  0  2  0  0  0  0  0  0  0  0  0
    7.0734   -8.8271    0.0000 C   0  0  2  0  0  0  0  0  0  0  0  0
    6.3588   -7.5896    0.0000 O   0  0  0  0  0  0  0  0  0  0  0  0
    6.3588   -9.2396    0.0000 C   0  0  2  0  0  0  0  0  0  0  0  0
    5.6444   -8.0021    0.0000 C   0  0  1  0  0  0  0  0  0  0  0  0
    5.6444   -8.8271    0.0000 C   0  0  1  0  0  0  0  0  0  0  0  0
    7.7878   -9.2396    0.0000 O   0  0  0  0  0  0  0  0  0  0  0  0
    6.3588  -10.0646    0.0000 O   0  0  0  0  0  0  0  0  0  0  0  0
    4.9300   -9.2396    0.0000 O   0  0  0  0  0  0  0  0  0  0  0  0
    4.9300   -7.5896    0.0000 C   0  0  0  0  0  0  0  0  0  0  0  0
    4.2156   -8.0021    0.0000 O   0  0  0  0  0  0  0  0  0  0  0  0
  2  3  1  0  0  0  0
  2  4  1  0  0  0  0
  3  5  1  0  0  0  0
  4  6  1  0  0  0  0
  5  7  1  0  0  0  0
  6  7  1  0  0  0  0
  3  8  1  1  0  0  0
  5  9  1  1  0  0  0
  7 10  1  6  0  0  0
  6 11  1  1  0  0  0
 11 12  1  0  0  0  0
  2  1  1  0  0  0  0
 13 14  1  0  0  0  0
 13 15  1  0  0  0  0
 14 16  1  0  0  0  0
 15 17  1  0  0  0  0
 16 18  1  0  0  0  0
 17 18  1  0  0  0  0
 14 19  1  1  0  0  0
 16 20  1  1  0  0  0
 18 21  1  6  0  0  0
 17 22  1  1  0  0  0
 22 23  1  0  0  0  0
 13 12  1  6  0  0  0
 24 25  1  0  0  0  0
 24 26  1  0  0  0  0
 25 27  1  0  0  0  0
 26 28  1  0  0  0  0
 27 29  1  0  0  0  0
 28 29  1  0  0  0  0
 25 30  1  1  0  0  0
 27 31  1  1  0  0  0
 29 32  1  6  0  0  0
 28 33  1  1  0  0  0
 33 34  1  0  0  0  0
 24 23  1  6  0  0  0
 35 36  1  0  0  0  0
 35 37  1  0  0  0  0
 36 38  1  0  0  0  0
 37 39  1  0  0  0  0
 38 40  1  0  0  0  0
 39 40  1  0  0  0  0
 36 41  1  1  0  0  0
 38 42  1  1  0  0  0
 40 43  1  6  0  0  0
 39 44  1  1  0  0  0
 44 45  1  0  0  0  0
 35 34  1  6  0  0  0
M  END
> <ID>
CHEBI:62556

> <NAME>
alpha-D-Manp-(1->6)-alpha-D-Manp-(1->6)-alpha-D-Manp-(1->6)-D-Manp

> <DEFINITION>
A mannotetraose in which the four mannose units joined by α-(1→6)-linkages.

> <STAR>
3

> <SYNONYM>
alpha-D-mannosyl-(1->6)-alpha-D-mannosyl-(1->6)-alpha-D-mannosyl-(1->6)-D-mannose; alpha-D-Man-(1->6)-alpha-D-Man-(1->6)-alpha-D-Man-(1->6)-D-Man; (Man)4

> <IUPAC_NAME>
alpha-D-mannopyranosyl-(1->6)-alpha-D-mannopyranosyl-(1->6)-alpha-D-mannopyranosyl-(1->6)-D-mannopyranose

> <FORMULA>
C24H42O21

> <MASS>
666.57770

> <MONOISOTOPIC_MASS>
666.22186

> <CHARGE>
0

> <SMILES>
OC[C@H]1O[C@H](OC[C@H]2O[C@H](OC[C@H]3O[C@H](OC[C@H]4OC(O)[C@@H](O)[C@@H](O)[C@@H]4O)[C@@H](O)[C@@H](O)[C@@H]3O)[C@@H](O)[C@@H](O)[C@@H]2O)[C@@H](O)[C@@H](O)[C@@H]1O

> <INCHI>
InChI=1S/C24H42O21/c25-1-5-9(26)14(31)18(35)22(43-5)40-3-7-11(28)16(33)20(37)24(45-7)41-4-8-12(29)15(32)19(36)23(44-8)39-2-6-10(27)13(30)17(34)21(38)42-6/h5-38H,1-4H2/t5-,6-,7-,8-,9-,10-,11-,12-,13+,14+,15+,16+,17+,18+,19+,20+,21?,22+,23+,24+/m1/s1

> <INCHIKEY>
DFKPJBWUFOESDV-JCFPIJKISA-N

> <KEGG_GLYCAN_ACCESSION>
G08039

> <PUBMED_CITATION>
8898075

$$$$

Marvin  07071110122D          

 47 50  0  0  1  0            999 V2000
    9.4460   -8.0576    0.0000 O   0  0  0  0  0  0  0  0  0  0  0  0
    9.4460   -7.2327    0.0000 C   0  0  2  0  0  0  0  0  0  0  0  0
   10.1604   -6.8203    0.0000 C   0  0  2  0  0  0  0  0  0  0  0  0
    8.7315   -6.8203    0.0000 C   0  0  1  0  0  0  0  0  0  0  0  0
   10.1604   -5.9952    0.0000 C   0  0  0  0  0  0  0  0  0  0  0  0
    8.7315   -5.9952    0.0000 C   0  0  2  0  0  0  0  0  0  0  0  0
    8.0171   -7.2327    0.0000 O   0  0  0  0  0  0  0  0  0  0  0  0
    9.4460   -5.5827    0.0000 O   0  0  0  0  0  0  0  0  0  0  0  0
   10.8748   -5.5827    0.0000 O   0  0  0  0  0  0  0  0  0  0  0  0
    8.0171   -5.5827    0.0000 C   0  0  0  0  0  0  0  0  0  0  0  0
   10.8748   -7.2327    0.0000 N   0  0  0  0  0  0  0  0  0  0  0  0
   11.5894   -6.8203    0.0000 C   0  0  0  0  0  0  0  0  0  0  0  0
   12.3038   -7.2327    0.0000 C   0  0  0  0  0  0  0  0  0  0  0  0
   11.5894   -5.9952    0.0000 O   0  0  0  0  0  0  0  0  0  0  0  0
   11.5894   -3.5202    0.0000 C   0  0  0  0  0  0  0  0  0  0  0  0
   11.5894   -4.3452    0.0000 C   0  0  1  0  0  0  0  0  0  0  0  0
   10.8748   -3.1077    0.0000 O   0  0  0  0  0  0  0  0  0  0  0  0
   10.8748   -4.7577    0.0000 C   0  0  2  0  0  0  0  0  0  0  0  0
   10.1604   -3.5202    0.0000 C   0  0  1  0  0  0  0  0  0  0  0  0
   10.1604   -4.3452    0.0000 C   0  0  2  0  0  0  0  0  0  0  0  0
   12.3038   -3.1077    0.0000 O   0  0  0  0  0  0  0  0  0  0  0  0
   12.3038   -4.7577    0.0000 O   0  0  0  0  0  0  0  0  0  0  0  0
    9.4460   -4.7577    0.0000 O   0  0  0  0  0  0  0  0  0  0  0  0
    9.4460   -3.1077    0.0000 C   0  0  0  0  0  0  0  0  0  0  0  0
    8.7314   -3.5202    0.0000 O   0  0  0  0  0  0  0  0  0  0  0  0
    5.8736   -8.4703    0.0000 C   0  0  2  0  0  0  0  0  0  0  0  0
    6.5882   -8.8828    0.0000 C   0  0  1  0  0  0  0  0  0  0  0  0
    7.3026   -7.6453    0.0000 C   0  0  2  0  0  0  0  0  0  0  0  0
    6.5880   -7.2327    0.0000 O   0  0  0  0  0  0  0  0  0  0  0  0
    7.3026   -8.4700    0.0000 C   0  0  2  0  0  0  0  0  0  0  0  0
    5.8736   -7.6453    0.0000 C   0  0  2  0  0  0  0  0  0  0  0  0
    8.0171   -8.8826    0.0000 O   0  0  0  0  0  0  0  0  0  0  0  0
    6.5882   -9.7078    0.0000 O   0  0  0  0  0  0  0  0  0  0  0  0
    5.1592   -8.8828    0.0000 O   0  0  0  0  0  0  0  0  0  0  0  0
    5.1592   -7.2327    0.0000 C   0  0  0  0  0  0  0  0  0  0  0  0
    4.4448   -7.6453    0.0000 O   0  0  0  0  0  0  0  0  0  0  0  0
    7.3027  -10.1203    0.0000 O   0  0  0  0  0  0  0  0  0  0  0  0
    7.3026  -10.9453    0.0000 C   0  0  2  0  0  0  0  0  0  0  0  0
    8.0171   -9.7076    0.0000 C   0  0  2  0  0  0  0  0  0  0  0  0
    8.7315  -10.1201    0.0000 C   0  0  2  0  0  0  0  0  0  0  0  0
    8.7315  -10.9451    0.0000 C   0  0  1  0  0  0  0  0  0  0  0  0
    8.0171  -11.3578    0.0000 C   0  0  2  0  0  0  0  0  0  0  0  0
    9.4460   -9.7076    0.0000 O   0  0  0  0  0  0  0  0  0  0  0  0
    9.4462  -11.3578    0.0000 O   0  0  0  0  0  0  0  0  0  0  0  0
    8.0173  -12.1828    0.0000 O   0  0  0  0  0  0  0  0  0  0  0  0
    6.5882  -11.3578    0.0000 C   0  0  0  0  0  0  0  0  0  0  0  0
    7.3026   -5.9952    0.0000 O   0  0  0  0  0  0  0  0  0  0  0  0
  2  3  1  0  0  0  0
  2  1  1  1  0  0  0
  2  4  1  0  0  0  0
  3  5  1  0  0  0  0
  3 11  1  6  0  0  0
  4  6  1  0  0  0  0
  4  7  1  6  0  0  0
  5  8  1  0  0  0  0
  5  9  1  0  0  0  0
  6 10  1  1  0  0  0
  6  8  1  0  0  0  0
 11 12  1  0  0  0  0
 12 13  1  0  0  0  0
 12 14  2  0  0  0  0
 15 16  1  0  0  0  0
 15 17  1  0  0  0  0
 16 18  1  0  0  0  0
 17 19  1  0  0  0  0
 18 20  1  0  0  0  0
 19 20  1  0  0  0  0
 15 21  1  0  0  0  0
 16 22  1  6  0  0  0
 18  9  1  1  0  0  0
 20 23  1  1  0  0  0
 19 24  1  1  0  0  0
 25 24  1  0  0  0  0
 26 34  1  1  0  0  0
 27 26  1  0  0  0  0
 27 33  1  1  0  0  0
 28 29  1  0  0  0  0
 28 30  1  0  0  0  0
 30 27  1  0  0  0  0
 30 32  1  6  0  0  0
 31 26  1  0  0  0  0
 29 31  1  0  0  0  0
 31 35  1  1  0  0  0
 35 36  1  0  0  0  0
 38 37  1  0  0  0  0
 39 37  1  0  0  0  0
 39 32  1  1  0  0  0
 39 40  1  0  0  0  0
 40 43  1  1  0  0  0
 40 41  1  0  0  0  0
 41 44  1  6  0  0  0
 41 42  1  0  0  0  0
 42 38  1  0  0  0  0
 42 45  1  6  0  0  0
 38 46  1  6  0  0  0
 28  7  1  1  0  0  0
 10 47  1  0  0  0  0
M  END
> <ID>
CHEBI:62559

> <NAME>
alpha-L-Fucp-(1->2)-beta-D-Galp-(1->4)-D-GlcpNAc-(1->3)-D-Galp

> <DEFINITION>
A linear amino tetrasaccharide comprising D-galactose at the reducing end having an α-L-fucosyl-(1→2)-β-D-galactosyl-(1→4)-N-acetyl-D-glucosaminyl group attached at the 3-position.

> <STAR>
3

> <SYNONYM>
alpha-L-fucosyl-(1->2)-beta-D-galactosyl-(1->4)-N-acetyl-D-glucosaminyl-(1->3)-D-galactose; alpha-L-Fuc-(1->2)-beta-D-Gal-(1->4)-D-GlcNAc-(1->3)-D-Gal; 6-deoxy-alpha-L-galactopyranosyl-(1->2)-beta-D-galactopyranosyl-(1->4)-2-acetamido-2-deoxy-D-glucopyranosyl-(1->3)-D-galactopyranose

> <IUPAC_NAME>
alpha-L-fucopyranosyl-(1->2)-beta-D-galactopyranosyl-(1->4)-2-acetamido-2-deoxy-D-glucopyranosyl-(1->3)-D-galactopyranose

> <FORMULA>
C26H45NO20

> <MASS>
691.63020

> <MONOISOTOPIC_MASS>
691.25349

> <CHARGE>
0

> <SMILES>
C[C@@H]1O[C@@H](O[C@@H]2[C@@H](O)[C@@H](O)[C@@H](CO)O[C@H]2O[C@H]2[C@H](O)[C@@H](NC(C)=O)C(O[C@@H]2CO)O[C@@H]2[C@@H](O)C(O)O[C@H](CO)[C@@H]2O)[C@@H](O)[C@H](O)[C@@H]1O

> <INCHI>
InChI=1S/C26H45NO20/c1-6-12(32)16(36)18(38)25(41-6)47-22-17(37)13(33)8(3-28)43-26(22)45-20-10(5-30)44-24(11(15(20)35)27-7(2)31)46-21-14(34)9(4-29)42-23(40)19(21)39/h6,8-26,28-30,32-40H,3-5H2,1-2H3,(H,27,31)/t6-,8+,9+,10+,11+,12+,13-,14-,15+,16+,17-,18-,19+,20+,21-,22+,23?,24?,25-,26-/m0/s1

> <INCHIKEY>
ONYHOCMLLIYKMB-RMWDLJNXSA-N

> <PUBMED_CITATION>
3042008

$$$$

Marvin  07291116412D          

 26 27  0  0  1  0            999 V2000
   15.3911   -7.7520    0.0000 O   0  0  0  0  0  0  0  0  0  0  0  0
   14.6765   -8.1919    0.0000 C   0  0  0  0  0  0  0  0  0  0  0  0
   14.6765   -9.0164    0.0000 C   0  0  1  0  0  0  0  0  0  0  0  0
   13.9617   -7.7795    0.0000 O   0  0  0  0  0  0  0  0  0  0  0  0
   13.9617   -9.4288    0.0000 C   0  0  2  0  0  0  0  0  0  0  0  0
   15.3911   -9.4288    0.0000 N   0  0  0  0  0  0  0  0  0  0  0  0
   13.2471   -8.1919    0.0000 C   0  0  1  0  0  0  0  0  0  0  0  0
   13.2471   -9.0164    0.0000 C   0  0  1  0  0  0  0  0  0  0  0  0
   13.9617  -10.1983    0.0000 O   0  0  0  0  0  0  0  0  0  0  0  0
   15.3911  -10.2259    0.0000 C   0  0  0  0  0  0  0  0  0  0  0  0
   12.5325   -7.8070    0.0000 C   0  0  0  0  0  0  0  0  0  0  0  0
   12.5325   -9.4288    0.0000 O   0  0  0  0  0  0  0  0  0  0  0  0
   16.1057  -10.6382    0.0000 C   0  0  0  0  0  0  0  0  0  0  0  0
   14.6765  -10.6382    0.0000 O   0  0  0  0  0  0  0  0  0  0  0  0
   11.8453   -8.2468    0.0000 O   0  0  0  0  0  0  0  0  0  0  0  0
   11.1073   -7.8474    0.0000 C   0  0  1  0  0  0  0  0  0  0  0  0
   10.3929   -8.2596    0.0000 C   0  0  1  0  0  0  0  0  0  0  0  0
   11.1073   -7.0225    0.0000 O   0  0  0  0  0  0  0  0  0  0  0  0
    9.6787   -7.8466    0.0000 C   0  0  2  0  0  0  0  0  0  0  0  0
   10.3929   -9.0847    0.0000 O   0  0  0  0  0  0  0  0  0  0  0  0
   10.3929   -6.6094    0.0000 C   0  0  1  0  0  0  0  0  0  0  0  0
    9.6787   -7.0215    0.0000 C   0  0  2  0  0  0  0  0  0  0  0  0
    9.0121   -8.2312    0.0000 O   0  0  0  0  0  0  0  0  0  0  0  0
   10.3691   -5.7981    0.0000 C   0  0  0  0  0  0  0  0  0  0  0  0
    8.9644   -6.6086    0.0000 O   0  0  0  0  0  0  0  0  0  0  0  0
    9.6448   -5.4227    0.0000 O   0  0  0  0  0  0  0  0  0  0  0  0
  2  1  1  0  0  0  0
  2  3  1  0  0  0  0
  2  4  1  0  0  0  0
  3  5  1  0  0  0  0
  3  6  1  6  0  0  0
  4  7  1  0  0  0  0
  5  8  1  0  0  0  0
  5  9  1  1  0  0  0
  6 10  1  0  0  0  0
  7 11  1  1  0  0  0
  8 12  1  6  0  0  0
 10 13  1  0  0  0  0
 10 14  2  0  0  0  0
  7  8  1  0  0  0  0
 11 15  1  0  0  0  0
 16 15  1  1  0  0  0
 16 17  1  0  0  0  0
 16 18  1  0  0  0  0
 17 19  1  0  0  0  0
 17 20  1  6  0  0  0
 18 21  1  0  0  0  0
 19 22  1  0  0  0  0
 19 23  1  1  0  0  0
 21 24  1  1  0  0  0
 22 25  1  1  0  0  0
 21 22  1  0  0  0  0
 24 26  1  0  0  0  0
M  END
> <ID>
CHEBI:62658

> <NAME>
beta-D-Galp-(1->6)-D-GlcNAcp

> <DEFINITION>
An amino disaccharide consisting of N-acetyl-D-glucosamine having a β-D-galactosyl residue attached at the 6-position.

> <STAR>
3

> <SYNONYM>
Galbeta1-6GlcNAc; betaDGal(1->6)DGlcNAc; beta-D-galactosyl-(1->6)-N-acetyl-D-glucosamine; beta-D-Gal-(1->6)-D-GlcNAc; 2-acetamido-2-deoxy-6-O-beta-D-galactopyranosyl-D-glucopyranose; (Gal)1 (GlcNAc)1

> <IUPAC_NAME>
beta-D-galactopyranosyl-(1->6)-2-acetamido-2-deoxy-D-glucopyranose

> <FORMULA>
C14H25NO11

> <MASS>
383.34840

> <MONOISOTOPIC_MASS>
383.14276

> <CHARGE>
0

> <SMILES>
CC(=O)N[C@H]1C(O)O[C@H](CO[C@@H]2O[C@H](CO)[C@H](O)[C@H](O)[C@H]2O)[C@@H](O)[C@@H]1O

> <INCHI>
InChI=1S/C14H25NO11/c1-4(17)15-7-10(20)9(19)6(25-13(7)23)3-24-14-12(22)11(21)8(18)5(2-16)26-14/h5-14,16,18-23H,2-3H2,1H3,(H,15,17)/t5-,6-,7-,8+,9-,10-,11+,12-,13?,14-/m1/s1

> <INCHIKEY>
ACKXCNXSQYSCQN-CIWHICPZSA-N

> <KEGG_GLYCAN_ACCESSION>
G00548

> <PUBMED_CITATION>
1270454; 12950254; 4112563; 9692202

$$$$

Marvin  08011109542D          

 17 17  0  0  1  0            999 V2000
    9.5519   -4.0118    0.0000 O   0  0  0  0  0  0  0  0  0  0  0  0
   10.2662   -4.4243    0.0000 C   0  0  2  0  0  0  0  0  0  0  0  0
    8.8374   -5.2492    0.0000 C   0  0  1  0  0  0  0  0  0  0  0  0
    8.1229   -5.6617    0.0000 O   0  0  0  0  0  0  0  0  0  0  0  0
   10.2662   -5.2492    0.0000 C   0  0  1  0  0  0  0  0  0  0  0  0
    9.5519   -5.6617    0.0000 C   0  0  1  0  0  0  0  0  0  0  0  0
    9.5519   -6.4868    0.0000 O   0  0  0  0  0  0  0  0  0  0  0  0
    8.8374   -4.4243    0.0000 C   0  0  1  0  0  0  0  0  0  0  0  0
    8.1229   -4.0118    0.0000 C   0  0  0  0  0  0  0  0  0  0  0  0
    7.4084   -4.4243    0.0000 O   0  0  0  0  0  0  0  0  0  0  0  0
   10.9808   -5.6617    0.0000 N   0  0  0  0  0  0  0  0  0  0  0  0
   11.6953   -6.8993    0.0000 O   0  0  0  0  0  0  0  0  0  0  0  0
   10.9808   -6.4868    0.0000 C   0  0  0  0  0  0  0  0  0  0  0  0
   10.2662   -6.8993    0.0000 C   0  0  0  0  0  0  0  0  0  0  0  0
   10.9808   -4.0118    0.0000 O   0  0  0  0  0  0  0  0  0  0  0  0
   11.6953   -4.4243    0.0000 C   0  0  0  0  0  0  0  0  0  0  0  0
   12.4098   -4.0118    0.0000 C   0  0  0  0  0  0  0  0  0  0  0  0
  1  8  1  0  0  0  0
  1  2  1  0  0  0  0
  8  3  1  0  0  0  0
  3  6  1  0  0  0  0
  6  5  1  0  0  0  0
  5  2  1  0  0  0  0
  2 15  1  1  0  0  0
  3  4  1  6  0  0  0
  5 11  1  6  0  0  0
  6  7  1  1  0  0  0
  8  9  1  1  0  0  0
  9 10  1  0  0  0  0
 11 13  1  0  0  0  0
 13 12  2  0  0  0  0
 13 14  1  0  0  0  0
 15 16  1  0  0  0  0
 16 17  1  0  0  0  0
M  END
> <ID>
CHEBI:62659

> <NAME>
ethyl N-acetyl-beta-D-glucosaminide

> <DEFINITION>
An N-acetyl-β-D-glucosaminide having ethyl as the anomeric substituent.

> <STAR>
3

> <SYNONYM>
ethyl-beta-N-acetylglucosaminide; ethyl beta-N-acetyl-D-glucosaminide; ethyl 2-acetamido-2-deoxy-beta-D-glucoside; ethyl 2-(acetylamino)-2-deoxy-beta-D-glucoside; ethyl 2-(acetylamino)-2-deoxy-beta-D-glucopyranoside; 1-O-ethyl-N-acetyl-beta-D-glucosamine

> <IUPAC_NAME>
ethyl 2-acetamido-2-deoxy-beta-D-glucopyranoside

> <FORMULA>
C10H19NO6

> <MASS>
249.26100

> <MONOISOTOPIC_MASS>
249.12124

> <CHARGE>
0

> <SMILES>
CCO[C@@H]1O[C@H](CO)[C@@H](O)[C@H](O)[C@H]1NC(C)=O

> <INCHI>
InChI=1S/C10H19NO6/c1-3-16-10-7(11-5(2)13)9(15)8(14)6(4-12)17-10/h6-10,12,14-15H,3-4H2,1-2H3,(H,11,13)/t6-,7-,8-,9-,10-/m1/s1

> <INCHIKEY>
KRABAWXNIPSDEF-VVULQXIFSA-N

> <REAXYS_REGISTRY_NUMBER>
86743

> <PUBMED_CITATION>
4112563

$$$$

Marvin  08031111372D          

 47 50  0  0  1  0            999 V2000
    9.6136   -5.2289    0.0000 C   0  0  1  0  0  0  0  0  0  0  0  0
    9.6136   -6.0539    0.0000 C   0  0  1  0  0  0  0  0  0  0  0  0
    8.8992   -4.8164    0.0000 O   0  0  0  0  0  0  0  0  0  0  0  0
    8.8992   -6.4664    0.0000 C   0  0  2  0  0  0  0  0  0  0  0  0
    8.1848   -5.2289    0.0000 C   0  0  1  0  0  0  0  0  0  0  0  0
    8.1848   -6.0539    0.0000 C   0  0  2  0  0  0  0  0  0  0  0  0
   10.3283   -4.8164    0.0000 O   0  0  0  0  0  0  0  0  0  0  0  0
   10.3283   -6.4664    0.0000 O   0  0  0  0  0  0  0  0  0  0  0  0
    8.8992   -7.2913    0.0000 O   0  0  0  0  0  0  0  0  0  0  0  0
    7.4702   -6.4664    0.0000 O   0  0  0  0  0  0  0  0  0  0  0  0
    7.4702   -4.8164    0.0000 C   0  0  0  0  0  0  0  0  0  0  0  0
    6.7560   -5.2289    0.0000 O   0  0  0  0  0  0  0  0  0  0  0  0
    8.1848   -7.7038    0.0000 C   0  0  2  0  0  0  0  0  0  0  0  0
    8.1848   -8.5288    0.0000 C   0  0  1  0  0  0  0  0  0  0  0  0
    7.4702   -7.2913    0.0000 O   0  0  0  0  0  0  0  0  0  0  0  0
    7.4702   -8.9412    0.0000 C   0  0  2  0  0  0  0  0  0  0  0  0
    6.7560   -7.7038    0.0000 C   0  0  1  0  0  0  0  0  0  0  0  0
    6.7560   -8.5288    0.0000 C   0  0  2  0  0  0  0  0  0  0  0  0
    8.8992   -8.9412    0.0000 O   0  0  0  0  0  0  0  0  0  0  0  0
    7.4702   -9.7662    0.0000 O   0  0  0  0  0  0  0  0  0  0  0  0
    6.0414   -8.9412    0.0000 O   0  0  0  0  0  0  0  0  0  0  0  0
    6.0414   -7.2913    0.0000 C   0  0  0  0  0  0  0  0  0  0  0  0
    5.3270   -7.7038    0.0000 O   0  0  0  0  0  0  0  0  0  0  0  0
   11.0427   -7.7038    0.0000 O   0  0  0  0  0  0  0  0  0  0  0  0
   11.7571   -8.1163    0.0000 C   0  0  2  0  0  0  0  0  0  0  0  0
   11.0427   -6.8788    0.0000 C   0  0  2  0  0  0  0  0  0  0  0  0
   11.7571   -6.4663    0.0000 C   0  0  2  0  0  0  0  0  0  0  0  0
   12.4715   -6.8789    0.0000 C   0  0  1  0  0  0  0  0  0  0  0  0
   12.4715   -7.7039    0.0000 C   0  0  2  0  0  0  0  0  0  0  0  0
   11.7573   -5.6414    0.0000 O   0  0  0  0  0  0  0  0  0  0  0  0
   13.1859   -6.4664    0.0000 O   0  0  0  0  0  0  0  0  0  0  0  0
   13.1859   -8.1163    0.0000 O   0  0  0  0  0  0  0  0  0  0  0  0
   11.7571   -8.9413    0.0000 C   0  0  0  0  0  0  0  0  0  0  0  0
   11.7573   -2.3415    0.0000 O   0  0  0  0  0  0  0  0  0  0  0  0
   11.0427   -2.7540    0.0000 C   0  0  2  0  0  0  0  0  0  0  0  0
   11.0427   -3.5790    0.0000 C   0  0  1  0  0  0  0  0  0  0  0  0
   10.3283   -2.3415    0.0000 O   0  0  0  0  0  0  0  0  0  0  0  0
   10.3283   -3.9914    0.0000 C   0  0  2  0  0  0  0  0  0  0  0  0
    9.6139   -2.7540    0.0000 C   0  0  1  0  0  0  0  0  0  0  0  0
    9.6139   -3.5790    0.0000 C   0  0  2  0  0  0  0  0  0  0  0  0
   11.7573   -3.9914    0.0000 N   0  0  0  0  0  0  0  0  0  0  0  0
    8.8995   -3.9914    0.0000 O   0  0  0  0  0  0  0  0  0  0  0  0
    8.8995   -2.3415    0.0000 C   0  0  0  0  0  0  0  0  0  0  0  0
    8.1848   -2.7540    0.0000 O   0  0  0  0  0  0  0  0  0  0  0  0
   12.4715   -3.5789    0.0000 C   0  0  0  0  0  0  0  0  0  0  0  0
   12.4715   -2.7540    0.0000 O   0  0  0  0  0  0  0  0  0  0  0  0
   13.1861   -3.9914    0.0000 C   0  0  0  0  0  0  0  0  0  0  0  0
  1  2  1  0  0  0  0
  1  3  1  0  0  0  0
  2  4  1  0  0  0  0
  3  5  1  0  0  0  0
  4  6  1  0  0  0  0
  5  6  1  0  0  0  0
  1  7  1  1  0  0  0
  2  8  1  6  0  0  0
  4  9  1  1  0  0  0
  6 10  1  1  0  0  0
  5 11  1  1  0  0  0
 12 11  1  0  0  0  0
 13 14  1  0  0  0  0
 13 15  1  0  0  0  0
 14 16  1  0  0  0  0
 15 17  1  0  0  0  0
 16 18  1  0  0  0  0
 17 18  1  0  0  0  0
 13  9  1  6  0  0  0
 14 19  1  6  0  0  0
 16 20  1  1  0  0  0
 18 21  1  1  0  0  0
 17 22  1  1  0  0  0
 23 22  1  0  0  0  0
 25 24  1  0  0  0  0
 26 24  1  0  0  0  0
 26  8  1  1  0  0  0
 26 27  1  0  0  0  0
 27 30  1  1  0  0  0
 27 28  1  0  0  0  0
 28 31  1  6  0  0  0
 28 29  1  0  0  0  0
 29 25  1  0  0  0  0
 29 32  1  6  0  0  0
 25 33  1  6  0  0  0
 35 36  1  0  0  0  0
 35 37  1  0  0  0  0
 36 38  1  0  0  0  0
 37 39  1  0  0  0  0
 38 40  1  0  0  0  0
 39 40  1  0  0  0  0
 35 34  1  6  0  0  0
 36 41  1  6  0  0  0
 38  7  1  1  0  0  0
 40 42  1  1  0  0  0
 39 43  1  1  0  0  0
 44 43  1  0  0  0  0
 46 45  2  0  0  0  0
 47 45  1  0  0  0  0
 41 45  1  0  0  0  0
M  END
> <ID>
CHEBI:62677

> <NAME>
alpha-D-Galp-(1->3)-[alpha-L-Fucp-(1->2)]-beta-D-Galp-(1->3)-alpha-D-GalpNAc

> <DEFINITION>
A branched amino tetrasaccharide comprising N-acetyl-α-D-galactosamine at the reducing end with an α-D-galactosyl-(1→3)-[α-L-fucosyl-(1→2)]-β-D-galactosyl moiety attached at the 3-position.

> <STAR>
3

> <SYNONYM>
Galalpha1-3(Fucalpha1-2)Galbeta1-3GalNAcalpha; Gala1-3(Fuca1-2)Galb1-3GalNAca; blood group B type 3 tetrasaccharide; alpha-L-Fucp-(1->2)-[alpha-D-Galp-(1->3)]-beta-D-Galp-(1->3)-alpha-D-GalpNAc; alpha-L-fucosyl-(1->2)-[alpha-D-galactosyl-(1->3)]-beta-D-galactosyl-(1->3)-N-acetyl-alpha-D-galactosamine; alpha-L-Fuc-(1->2)-[alpha-D-Gal-(1->3)]-beta-D-Gal-(1->3)-alpha-D-GalNAc; alpha-D-galactosyl-(1->3)-[alpha-L-fucosyl-(1->2)]-beta-D-galactosyl-(1->3)-N-acetyl-alpha-D-galactosamine; alpha-D-Gal-(1->3)-[alpha-L-Fuc-(1->2)]-beta-D-Gal-(1->3)-alpha-D-GalNAc; 6-deoxy-alpha-L-galactopyranosyl-(1->2)-[alpha-D-galactopyranosyl-(1->3)]-beta-D-galactopyranosyl-(1->3)-2-acetamido-2-deoxy-alpha-D-galactopyranose

> <IUPAC_NAME>
alpha-L-fucopyranosyl-(1->2)-[alpha-D-galactopyranosyl-(1->3)]-beta-D-galactopyranosyl-(1->3)-2-acetamido-2-deoxy-alpha-D-galactopyranose

> <FORMULA>
C26H45NO20

> <MASS>
691.63020

> <MONOISOTOPIC_MASS>
691.25349

> <CHARGE>
0

> <SMILES>
C[C@@H]1O[C@@H](O[C@H]2[C@@H](O[C@H](CO)[C@H](O)[C@@H]2O[C@H]2O[C@H](CO)[C@H](O)[C@H](O)[C@H]2O)O[C@H]2[C@@H](O)[C@@H](CO)O[C@H](O)[C@@H]2NC(C)=O)[C@@H](O)[C@H](O)[C@@H]1O

> <INCHI>
InChI=1S/C26H45NO20/c1-6-12(32)16(36)18(38)24(41-6)47-22-21(46-25-19(39)17(37)13(33)8(3-28)43-25)15(35)10(5-30)44-26(22)45-20-11(27-7(2)31)23(40)42-9(4-29)14(20)34/h6,8-26,28-30,32-40H,3-5H2,1-2H3,(H,27,31)/t6-,8+,9+,10+,11+,12+,13-,14-,15-,16+,17-,18-,19+,20+,21-,22+,23-,24-,25+,26-/m0/s1

> <INCHIKEY>
UTKJZGYXPDLBQS-VQEPVDRHSA-N

> <PUBMED_CITATION>
10442639; 25568069

$$$$

Marvin  08031114492D          

 47 50  0  0  1  0            999 V2000
    8.0776   -3.8461    0.0000 C   0  0  1  0  0  0  0  0  0  0  0  0
    8.0776   -4.6711    0.0000 C   0  0  1  0  0  0  0  0  0  0  0  0
    7.3632   -3.4336    0.0000 O   0  0  0  0  0  0  0  0  0  0  0  0
    7.3632   -5.0836    0.0000 C   0  0  2  0  0  0  0  0  0  0  0  0
    6.6488   -3.8461    0.0000 C   0  0  1  0  0  0  0  0  0  0  0  0
    6.6488   -4.6711    0.0000 C   0  0  2  0  0  0  0  0  0  0  0  0
    8.7921   -3.4336    0.0000 O   0  0  0  0  0  0  0  0  0  0  0  0
    8.7921   -5.0836    0.0000 O   0  0  0  0  0  0  0  0  0  0  0  0
    7.3632   -5.9084    0.0000 O   0  0  0  0  0  0  0  0  0  0  0  0
    5.9342   -5.0836    0.0000 O   0  0  0  0  0  0  0  0  0  0  0  0
    5.9342   -3.4336    0.0000 C   0  0  0  0  0  0  0  0  0  0  0  0
    5.2200   -3.8461    0.0000 O   0  0  0  0  0  0  0  0  0  0  0  0
    6.6488   -6.3209    0.0000 C   0  0  2  0  0  0  0  0  0  0  0  0
    6.6488   -7.1459    0.0000 C   0  0  1  0  0  0  0  0  0  0  0  0
    5.9342   -5.9084    0.0000 O   0  0  0  0  0  0  0  0  0  0  0  0
    5.9342   -7.5584    0.0000 C   0  0  2  0  0  0  0  0  0  0  0  0
    5.2200   -6.3209    0.0000 C   0  0  1  0  0  0  0  0  0  0  0  0
    5.2200   -7.1459    0.0000 C   0  0  2  0  0  0  0  0  0  0  0  0
    7.3632   -7.5584    0.0000 O   0  0  0  0  0  0  0  0  0  0  0  0
    5.9342   -8.3834    0.0000 O   0  0  0  0  0  0  0  0  0  0  0  0
    4.5054   -7.5584    0.0000 O   0  0  0  0  0  0  0  0  0  0  0  0
    4.5054   -5.9084    0.0000 C   0  0  0  0  0  0  0  0  0  0  0  0
    3.7909   -6.3209    0.0000 O   0  0  0  0  0  0  0  0  0  0  0  0
   11.6501   -1.7837    0.0000 O   0  0  0  0  0  0  0  0  0  0  0  0
   10.9355   -2.1962    0.0000 C   0  0  1  0  0  0  0  0  0  0  0  0
   10.9355   -3.0212    0.0000 C   0  0  1  0  0  0  0  0  0  0  0  0
   10.2209   -1.7837    0.0000 O   0  0  0  0  0  0  0  0  0  0  0  0
   10.2209   -3.4336    0.0000 C   0  0  2  0  0  0  0  0  0  0  0  0
    9.5065   -2.1962    0.0000 C   0  0  1  0  0  0  0  0  0  0  0  0
    9.5065   -3.0212    0.0000 C   0  0  1  0  0  0  0  0  0  0  0  0
   11.6501   -3.4336    0.0000 N   0  0  0  0  0  0  0  0  0  0  0  0
    8.7921   -1.7837    0.0000 C   0  0  0  0  0  0  0  0  0  0  0  0
    8.0776   -2.1962    0.0000 O   0  0  0  0  0  0  0  0  0  0  0  0
   12.3643   -3.0211    0.0000 C   0  0  0  0  0  0  0  0  0  0  0  0
   12.3643   -2.1962    0.0000 O   0  0  0  0  0  0  0  0  0  0  0  0
   13.0789   -3.4336    0.0000 C   0  0  0  0  0  0  0  0  0  0  0  0
   10.2208   -4.2586    0.0000 O   0  0  0  0  0  0  0  0  0  0  0  0
    8.7920   -6.5125    0.0000 O   0  0  0  0  0  0  0  0  0  0  0  0
    9.2045   -7.2269    0.0000 C   0  0  2  0  0  0  0  0  0  0  0  0
    9.2046   -5.7981    0.0000 C   0  0  2  0  0  0  0  0  0  0  0  0
   10.0295   -5.7981    0.0000 C   0  0  2  0  0  0  0  0  0  0  0  0
   10.4420   -6.5127    0.0000 C   0  0  1  0  0  0  0  0  0  0  0  0
   10.0295   -7.2272    0.0000 C   0  0  2  0  0  0  0  0  0  0  0  0
   10.4423   -5.0839    0.0000 O   0  0  0  0  0  0  0  0  0  0  0  0
   11.2670   -6.5127    0.0000 O   0  0  0  0  0  0  0  0  0  0  0  0
   10.4420   -7.9415    0.0000 O   0  0  0  0  0  0  0  0  0  0  0  0
    8.7920   -7.9415    0.0000 C   0  0  0  0  0  0  0  0  0  0  0  0
  1  2  1  0  0  0  0
  1  3  1  0  0  0  0
  2  4  1  0  0  0  0
  3  5  1  0  0  0  0
  4  6  1  0  0  0  0
  5  6  1  0  0  0  0
  1  7  1  1  0  0  0
  2  8  1  6  0  0  0
  4  9  1  1  0  0  0
  6 10  1  1  0  0  0
  5 11  1  1  0  0  0
 12 11  1  0  0  0  0
 13 14  1  0  0  0  0
 13 15  1  0  0  0  0
 14 16  1  0  0  0  0
 15 17  1  0  0  0  0
 16 18  1  0  0  0  0
 17 18  1  0  0  0  0
 13  9  1  6  0  0  0
 14 19  1  6  0  0  0
 16 20  1  1  0  0  0
 18 21  1  1  0  0  0
 17 22  1  1  0  0  0
 23 22  1  0  0  0  0
 25 26  1  0  0  0  0
 25 27  1  0  0  0  0
 26 28  1  0  0  0  0
 27 29  1  0  0  0  0
 28 30  1  0  0  0  0
 29 30  1  0  0  0  0
 25 24  1  1  0  0  0
 26 31  1  6  0  0  0
 30  7  1  6  0  0  0
 29 32  1  1  0  0  0
 33 32  1  0  0  0  0
 35 34  2  0  0  0  0
 36 34  1  0  0  0  0
 31 34  1  0  0  0  0
 28 37  1  1  0  0  0
 39 38  1  0  0  0  0
 40 38  1  0  0  0  0
 40 41  1  0  0  0  0
 41 44  1  1  0  0  0
 41 42  1  0  0  0  0
 42 45  1  6  0  0  0
 42 43  1  0  0  0  0
 43 39  1  0  0  0  0
 43 46  1  6  0  0  0
 39 47  1  6  0  0  0
 40  8  1  1  0  0  0
M  END
> <ID>
CHEBI:62679

> <NAME>
alpha-D-Galp-(1->3)-[alpha-L-Fucp-(1->2)]-beta-D-Galp-(1->4)-beta-D-GlcpNAc

> <DEFINITION>
A branched amino tetrasaccharide comprising N-acetyl-β-D-glucosamine at the reducing end with a α-D-galactosyl-(1→3)-[α-L-fucosyl-(1→2)]-β-D-galactosyl moiety attached at the 4-position.

> <STAR>
3

> <SYNONYM>
Galalpha1-3(Fucalpha1-2)Galbeta1-4GlcNAcbeta; Galalpha1,3(Fucalpha1,2)Galbeta1,4GlcNAcbeta; blood group B type 2 tetrasaccharide; alpha-D-galactosyl-(1->3)-[alpha-L-fucosyl-(1->2)]-beta-D-galactosyl-(1->4)-N-acetyl-beta-D-glucosamine; alpha-D-Gal-(1->3)-[alpha-L-Fuc-(1->2)]-beta-D-Gal-(1->4)-beta-D-GlcNAc; 6-deoxy-alpha-L-galactopyranosyl-(1->2)-[alpha-D-galactopyranosyl-(1->3)]-beta-D-galactopyranosyl-(1->4)-2-acetamido-2-deoxy-beta-D-glucopyranose

> <IUPAC_NAME>
alpha-L-fucopyranosyl-(1->2)-[alpha-D-galactopyranosyl-(1->3)]-beta-D-galactopyranosyl-(1->4)-2-acetamido-2-deoxy-beta-D-glucopyranose

> <FORMULA>
C26H45NO20

> <MASS>
691.63020

> <MONOISOTOPIC_MASS>
691.25349

> <CHARGE>
0

> <SMILES>
C[C@@H]1O[C@@H](O[C@H]2[C@@H](O[C@H](CO)[C@H](O)[C@@H]2O[C@H]2O[C@H](CO)[C@H](O)[C@H](O)[C@H]2O)O[C@H]2[C@H](O)[C@@H](NC(C)=O)[C@H](O)O[C@@H]2CO)[C@@H](O)[C@H](O)[C@@H]1O

> <INCHI>
InChI=1S/C26H45NO20/c1-6-12(32)16(36)18(38)24(41-6)47-22-21(46-25-19(39)17(37)13(33)8(3-28)43-25)14(34)9(4-29)44-26(22)45-20-10(5-30)42-23(40)11(15(20)35)27-7(2)31/h6,8-26,28-30,32-40H,3-5H2,1-2H3,(H,27,31)/t6-,8+,9+,10+,11+,12+,13-,14-,15+,16+,17-,18-,19+,20+,21-,22+,23+,24-,25+,26-/m0/s1

> <INCHIKEY>
NKJKPKMCVCXPMF-WXJHIGGDSA-N

> <PUBMED_CITATION>
10442639; 24749871

$$$$

Marvin  08041111102D          

 17 18  0  0  0  0            999 V2000
    7.4827   -3.6527    0.0000 N   0  0  0  0  0  0  0  0  0  0  0  0
    8.1973   -3.2402    0.0000 C   0  0  0  0  0  0  0  0  0  0  0  0
    7.4827   -6.1277    0.0000 N   0  0  0  0  0  0  0  0  0  0  0  0
    7.4827   -4.4777    0.0000 C   0  0  0  0  0  0  0  0  0  0  0  0
    8.1973   -4.8902    0.0000 C   0  0  0  0  0  0  0  0  0  0  0  0
    6.7683   -4.8902    0.0000 C   0  0  0  0  0  0  0  0  0  0  0  0
    8.1973   -2.4152    0.0000 O   0  0  0  0  0  0  0  0  0  0  0  0
    6.7683   -3.2402    0.0000 C   0  0  0  0  0  0  0  0  0  0  0  0
    6.7683   -5.7152    0.0000 C   0  0  0  0  0  0  0  0  0  0  0  0
    8.1973   -5.7152    0.0000 C   0  0  0  0  0  0  0  0  0  0  0  0
    8.9117   -3.6527    0.0000 C   0  0  0  0  0  0  0  0  0  0  0  0
    6.0538   -3.6527    0.0000 C   0  0  0  0  0  0  0  0  0  0  0  0
    6.7683   -2.4152    0.0000 C   0  0  0  0  0  0  0  0  0  0  0  0
    5.3393   -3.2402    0.0000 C   0  0  0  0  0  0  0  0  0  0  0  0
    6.0538   -2.0027    0.0000 C   0  0  0  0  0  0  0  0  0  0  0  0
    5.3393   -2.4152    0.0000 C   0  0  0  0  0  0  0  0  0  0  0  0
    9.6262   -3.2402    0.0000 C   0  0  0  0  0  0  0  0  0  0  0  0
  2  1  1  0  0  0  0
  4  1  1  0  0  0  0
  8  1  1  0  0  0  0
  7  2  2  0  0  0  0
 11  2  1  0  0  0  0
  9  3  1  0  0  0  0
 10  3  1  0  0  0  0
  5  4  1  0  0  0  0
  6  4  1  0  0  0  0
 10  5  1  0  0  0  0
  9  6  1  0  0  0  0
 12  8  1  0  0  0  0
 13  8  2  0  0  0  0
 14 12  2  0  0  0  0
 15 13  1  0  0  0  0
 16 14  1  0  0  0  0
 16 15  2  0  0  0  0
 11 17  1  0  0  0  0
M  END
> <ID>
CHEBI:62685

> <NAME>
norfentanyl

> <DEFINITION>
A monocarboxylic acid amide resulting from the formal condensation of the aryl amino group of 4-(N'-phenyl)piperidin-4-amine with propanoic acid. A major metabolite of fentanyl.

> <STAR>
3

> <SYNONYM>
N-phenyl-N-4-piperidinylpropionamide; N-phenyl-N-4-piperidinylpropanamide; N-phenyl-N-(piperidin-4-yl)propionamide; 4-(N-propionylanilino)piperidine; 4-(N'-phenyl-N'-propionyl)aminopiperidine

> <IUPAC_NAME>
N-phenyl-N-(piperidin-4-yl)propanamide

> <FORMULA>
C14H20N2O

> <MASS>
232.32140

> <MONOISOTOPIC_MASS>
232.15756

> <CHARGE>
0

> <SMILES>
CCC(=O)N(C1CCNCC1)c1ccccc1

> <INCHI>
InChI=1S/C14H20N2O/c1-2-14(17)16(12-6-4-3-5-7-12)13-8-10-15-11-9-13/h3-7,13,15H,2,8-11H2,1H3

> <INCHIKEY>
PMCBDBWCQQBSRJ-UHFFFAOYSA-N

> <REAXYS_REGISTRY_NUMBER>
480031

> <PUBMED_CITATION>
16302812; 16621415; 17329100; 17927164; 17987285; 17988466; 19232849; 19746826; 20097932; 20297612; 20362485; 20462721; 20542478; 20658494; 21132842; 21356580

$$$$

Marvin  09021114492D          

 24 27  0  0  1  0            999 V2000
   11.6210   -4.8275    0.0000 C   0  0  0  0  0  0  0  0  0  0  0  0
   10.8984   -5.2238    0.0000 C   0  0  0  0  0  0  0  0  0  0  0  0
   10.8984   -6.0554    0.0000 C   0  0  0  0  0  0  0  0  0  0  0  0
   11.6210   -6.4671    0.0000 C   0  0  0  0  0  0  0  0  0  0  0  0
   12.3283   -6.0554    0.0000 C   0  0  0  0  0  0  0  0  0  0  0  0
   13.0431   -6.4671    0.0000 C   0  0  0  0  0  0  0  0  0  0  0  0
   13.7736   -6.0554    0.0000 C   0  0  0  0  0  0  0  0  0  0  0  0
   13.7736   -5.2238    0.0000 C   0  0  2  0  0  0  0  0  0  0  0  0
   13.0431   -4.8275    0.0000 C   0  0  1  0  0  0  0  0  0  0  0  0
   12.3283   -5.2238    0.0000 C   0  0  0  0  0  0  0  0  0  0  0  0
   13.0431   -4.0194    0.0000 C   0  0  0  0  0  0  0  0  0  0  0  0
   13.7736   -3.5997    0.0000 C   0  0  0  0  0  0  0  0  0  0  0  0
   14.4653   -4.0194    0.0000 C   0  0  1  0  0  0  0  0  0  0  0  0
   14.4653   -4.8275    0.0000 C   0  0  1  0  0  0  0  0  0  0  0  0
   15.2500   -5.0839    0.0000 C   0  0  0  0  0  0  0  0  0  0  0  0
   15.7241   -4.4312    0.0000 C   0  0  0  0  0  0  0  0  0  0  0  0
   15.2500   -3.7629    0.0000 C   0  0  2  0  0  0  0  0  0  0  0  0
   14.4653   -3.1723    0.0000 C   0  0  0  0  0  0  0  0  0  0  0  0
   14.4730   -5.6590    0.0000 H   0  0  0  0  0  0  0  0  0  0  0  0
   13.7736   -4.4001    0.0000 H   0  0  0  0  0  0  0  0  0  0  0  0
   13.0353   -5.6590    0.0000 H   0  0  0  0  0  0  0  0  0  0  0  0
   15.4652   -2.8400    0.0000 O   0  0  0  0  0  0  0  0  0  0  0  0
   10.2150   -6.4272    0.0000 O   0  0  0  0  0  0  0  0  0  0  0  0
   11.6248   -7.2986    0.0000 O   0  0  0  0  0  0  0  0  0  0  0  0
 14 13  1  0  0  0  0
 17 13  1  0  0  0  0
 12 13  1  0  0  0  0
 13 18  1  1  0  0  0
  8 14  1  0  0  0  0
 15 14  1  0  0  0  0
 14 19  1  6  0  0  0
 11  9  1  0  0  0  0
 10  9  1  0  0  0  0
  8  9  1  0  0  0  0
  9 21  1  6  0  0  0
  7  8  1  0  0  0  0
  8 20  1  1  0  0  0
  5 10  2  0  0  0  0
  1 10  1  0  0  0  0
 16 17  1  0  0  0  0
 11 12  1  0  0  0  0
 16 15  1  0  0  0  0
  6  7  1  0  0  0  0
  4  5  1  0  0  0  0
  6  5  1  0  0  0  0
  2  1  2  0  0  0  0
  3  4  2  0  0  0  0
  3  2  1  0  0  0  0
 17 22  1  1  0  0  0
 23  3  1  0  0  0  0
  4 24  1  0  0  0  0
M  END
> <ID>
CHEBI:62845

> <NAME>
4-hydroxy-17beta-estradiol

> <DEFINITION>
A 4-hydroxy steroid that consists of 17β-estradiol having an additional hydroxy group at position 4.

> <STAR>
3

> <SECONDARY_ID>
CHEBI:34424

> <SYNONYM>
4OHE2; 4-OH-Estradiol; 4-Hydroxyestradiol-17beta; 4-hydroxyestradiol; 4-hydroxy-17-beta-estradiol; 3,4,17beta-trihydroxy-1,3,5[10]-estratriene; 3,4,17beta-estriol

> <IUPAC_NAME>
estra-1,3,5(10)-triene-3,14,17beta-triol

> <FORMULA>
C18H24O3

> <MASS>
288.38140

> <MONOISOTOPIC_MASS>
288.17254

> <CHARGE>
0

> <SMILES>
[H][C@]12CC[C@]3(C)[C@@H](O)CC[C@@]3([H])[C@]1([H])CCc1c(O)c(O)ccc21

> <INCHI>
InChI=1S/C18H24O3/c1-18-9-8-11-10-4-6-15(19)17(21)13(10)3-2-12(11)14(18)5-7-16(18)20/h4,6,11-12,14,16,19-21H,2-3,5,7-9H2,1H3/t11-,12-,14+,16+,18+/m1/s1

> <INCHIKEY>
QOZFCKXEVSGWGS-ZHIYBZGJSA-N

> <CAS_REGISTRY_NUMBER>
5976-61-4

> <REAXYS_REGISTRY_NUMBER>
2219366

> <CHEMIDPLUS>
5976-61-4

> <HMDB_ACCESSION>
HMDB0005896

> <KEGG_COMPOUND_ACCESSION>
C14209

> <LIPID_MAPS_INSTANCE_ACCESSION>
LMST02010028

> <PUBMED_CITATION>
10077490; 11258977; 11812141; 11961123; 12093619; 12493568; 16112522; 17173372; 18379081; 20540524; 20708024; 9554872

$$$$

Marvin  09021115582D          

 23 26  0  0  1  0            999 V2000
   10.5749   -5.3830    0.0000 C   0  0  0  0  0  0  0  0  0  0  0  0
   11.2894   -5.7955    0.0000 C   0  0  0  0  0  0  0  0  0  0  0  0
   12.7183   -6.6205    0.0000 C   0  0  0  0  0  0  0  0  0  0  0  0
   12.0039   -7.0330    0.0000 C   0  0  0  0  0  0  0  0  0  0  0  0
   11.2894   -6.6205    0.0000 C   0  0  0  0  0  0  0  0  0  0  0  0
   10.5749   -7.0330    0.0000 C   0  0  0  0  0  0  0  0  0  0  0  0
    9.8605   -5.7955    0.0000 C   0  0  0  0  0  0  0  0  0  0  0  0
    9.8605   -6.6205    0.0000 C   0  0  0  0  0  0  0  0  0  0  0  0
   12.7183   -5.7955    0.0000 C   0  0  2  0  0  0  0  0  0  0  0  0
   12.0039   -5.3830    0.0000 C   0  0  2  0  0  0  0  0  0  0  0  0
   14.2175   -5.6380    0.0000 C   0  0  0  0  0  0  0  0  0  0  0  0
   14.2175   -4.3032    0.0000 C   0  0  2  0  0  0  0  0  0  0  0  0
   12.7185   -4.1455    0.0000 C   0  0  0  0  0  0  0  0  0  0  0  0
   14.7024   -4.9707    0.0000 C   0  0  0  0  0  0  0  0  0  0  0  0
   12.0039   -4.5580    0.0000 C   0  0  0  0  0  0  0  0  0  0  0  0
   14.4725   -3.5185    0.0000 O   0  0  0  0  0  0  0  0  0  0  0  0
    9.1460   -7.0330    0.0000 O   0  0  0  0  0  0  0  0  0  0  0  0
   12.7185   -4.9705    0.0000 H   0  0  0  0  0  0  0  0  0  0  0  0
   12.0039   -6.2080    0.0000 H   0  0  0  0  0  0  0  0  0  0  0  0
   13.4329   -4.5582    0.0000 C   0  0  2  0  0  0  0  0  0  0  0  0
   13.4329   -3.7332    0.0000 C   0  0  0  0  0  0  0  0  0  0  0  0
   13.4329   -5.3832    0.0000 C   0  0  2  0  0  0  0  0  0  0  0  0
   13.4329   -6.2082    0.0000 H   0  0  0  0  0  0  0  0  0  0  0  0
  2  1  2  0  0  0  0
  3  4  2  0  0  0  0
  2  5  1  0  0  0  0
  4  5  1  0  0  0  0
  5  6  2  0  0  0  0
  1  7  1  0  0  0  0
  6  8  1  0  0  0  0
  7  8  2  0  0  0  0
  8 17  1  0  0  0  0
  9  3  1  0  0  0  0
 22  9  1  0  0  0  0
  9 18  1  1  0  0  0
  9 10  1  0  0  0  0
 10  2  1  0  0  0  0
 10 15  1  0  0  0  0
 10 19  1  6  0  0  0
 22 11  1  0  0  0  0
 14 11  1  0  0  0  0
 20 12  1  0  0  0  0
 12 16  1  1  0  0  0
 12 14  1  0  0  0  0
 20 13  1  0  0  0  0
 13 15  1  0  0  0  0
 22 20  1  0  0  0  0
 20 21  1  1  0  0  0
 22 23  1  6  0  0  0
M  END
> <ID>
CHEBI:62850

> <NAME>
6,7-didehydro-17beta-estradiol

> <DEFINITION>
A 3-hydroxy steroid that is obtained by formal dehydrogenation across positions 6 and 7 of 17β-estradiol.

> <STAR>
3

> <SYNONYM>
oestra-1(10),2,4,6-tetraene-3,17beta-diol; Estra-1,3,5(10),6-tetraene-3,17-diol; Estra-1,3,5(10),6-tetraen-3,17beta-diol; 6-Dehydroestradiol; 6-dehydro-17beta-estradiol

> <IUPAC_NAME>
estra-1(10),2,4,6-tetraene-3,17beta-diol

> <FORMULA>
C18H22O2

> <MASS>
270.36610

> <MONOISOTOPIC_MASS>
270.16198

> <CHARGE>
0

> <SMILES>
[H][C@]12CC[C@]3(C)[C@@H](O)CC[C@@]3([H])[C@]1([H])C=Cc1cc(O)ccc21

> <INCHI>
InChI=1S/C18H22O2/c1-18-9-8-14-13-5-3-12(19)10-11(13)2-4-15(14)16(18)6-7-17(18)20/h2-5,10,14-17,19-20H,6-9H2,1H3/t14-,15-,16+,17+,18+/m1/s1

> <INCHIKEY>
VVLCELUSWGWMSW-ZBRFXRBCSA-N

> <CAS_REGISTRY_NUMBER>
7291-41-0

> <REAXYS_REGISTRY_NUMBER>
3138222

> <CHEMIDPLUS>
7291-41-0

> <KEGG_COMPOUND_ACCESSION>
C14590

> <PUBMED_CITATION>
11812141; 17110114; 18754381; 9357533

$$$$

Marvin  09051116162D          

 22 23  0  0  1  0            999 V2000
    9.5347   -3.0338    0.0000 C   0  0  0  0  0  0  0  0  0  0  0  0
    9.5347   -3.8588    0.0000 C   0  0  1  0  0  0  0  0  0  0  0  0
    8.8201   -2.6214    0.0000 O   0  0  0  0  0  0  0  0  0  0  0  0
    8.8201   -4.2714    0.0000 C   0  0  2  0  0  0  0  0  0  0  0  0
    8.1057   -3.0338    0.0000 C   0  0  1  0  0  0  0  0  0  0  0  0
    8.1057   -3.8588    0.0000 C   0  0  2  0  0  0  0  0  0  0  0  0
   10.2491   -2.6214    0.0000 O   0  0  0  0  0  0  0  0  0  0  0  0
   10.2491   -4.2714    0.0000 O   0  0  0  0  0  0  0  0  0  0  0  0
    8.8201   -5.0964    0.0000 O   0  0  0  0  0  0  0  0  0  0  0  0
    7.3913   -4.2714    0.0000 O   0  0  0  0  0  0  0  0  0  0  0  0
    7.3913   -2.6214    0.0000 C   0  0  0  0  0  0  0  0  0  0  0  0
    6.6767   -3.0338    0.0000 O   0  0  0  0  0  0  0  0  0  0  0  0
    9.5346   -5.5087    0.0000 O   0  0  0  0  0  0  0  0  0  0  0  0
    9.5346   -6.3337    0.0000 C   0  0  2  0  0  0  0  0  0  0  0  0
   10.2491   -5.0963    0.0000 C   0  0  2  0  0  0  0  0  0  0  0  0
   10.9635   -5.5087    0.0000 C   0  0  2  0  0  0  0  0  0  0  0  0
   10.9635   -6.3337    0.0000 C   0  0  1  0  0  0  0  0  0  0  0  0
   10.2490   -6.7463    0.0000 C   0  0  2  0  0  0  0  0  0  0  0  0
   11.6780   -5.0964    0.0000 O   0  0  0  0  0  0  0  0  0  0  0  0
   11.6780   -6.7463    0.0000 O   0  0  0  0  0  0  0  0  0  0  0  0
   10.2490   -7.5711    0.0000 O   0  0  0  0  0  0  0  0  0  0  0  0
    8.8201   -6.7463    0.0000 C   0  0  0  0  0  0  0  0  0  0  0  0
  1  2  1  0  0  0  0
  1  3  1  0  0  0  0
  2  4  1  0  0  0  0
  3  5  1  0  0  0  0
  4  6  1  0  0  0  0
  5  6  1  0  0  0  0
  1  7  1  0  0  0  0
  2  8  1  6  0  0  0
  4  9  1  1  0  0  0
  6 10  1  1  0  0  0
  5 11  1  1  0  0  0
 12 11  1  0  0  0  0
 14 13  1  0  0  0  0
 15 13  1  0  0  0  0
 15  8  1  1  0  0  0
 15 16  1  0  0  0  0
 16 19  1  1  0  0  0
 16 17  1  0  0  0  0
 17 20  1  6  0  0  0
 17 18  1  0  0  0  0
 18 14  1  0  0  0  0
 18 21  1  6  0  0  0
 14 22  1  6  0  0  0
M  END
> <ID>
CHEBI:62857

> <NAME>
alpha-L-Fucp-(1->2)-D-Galp

> <DEFINITION>
A glycosylgalactose consisting of D-galactose having an α-L-fucosyl residue attached at the 2-position.

> <STAR>
3

> <SYNONYM>
Fucalpha1-2Gal; alpha-L-fucosyl-(1->2)-D-galactose; alpha-L-Fuc-(1->2)-D-Gal; 2-O-alpha-L-fucopyranosyl-D-galactose; 2-O-(6-deoxy-alpha-L-galactopyranosyl)-D-galactopyranose; (Gal)1 (LFuc)1

> <IUPAC_NAME>
alpha-L-fucopyranosyl-(1->2)-D-galactopyranose

> <FORMULA>
C12H22O10

> <MASS>
326.29710

> <MONOISOTOPIC_MASS>
326.12130

> <CHARGE>
0

> <SMILES>
C[C@@H]1O[C@@H](O[C@H]2C(O)O[C@H](CO)[C@H](O)[C@@H]2O)[C@@H](O)[C@H](O)[C@@H]1O

> <INCHI>
InChI=1S/C12H22O10/c1-3-5(14)7(16)9(18)12(20-3)22-10-8(17)6(15)4(2-13)21-11(10)19/h3-19H,2H2,1H3/t3-,4+,5+,6-,7+,8-,9-,10+,11?,12-/m0/s1

> <INCHIKEY>
VSRVRBXGIRFARR-QEOJKCTASA-N

> <REAXYS_REGISTRY_NUMBER>
1687052

> <KEGG_GLYCAN_ACCESSION>
G00291

> <PUBMED_CITATION>
1591768; 16133833

$$$$

Marvin  09211111082D          

 24 25  0  0  1  0            999 V2000
    9.0887   -9.0516    0.0000 O   0  0  0  0  0  0  0  0  0  0  0  0
    8.3742   -9.4640    0.0000 C   0  0  2  0  0  0  0  0  0  0  0  0
    8.3742  -10.2889    0.0000 C   0  0  1  0  0  0  0  0  0  0  0  0
    7.6598   -9.0516    0.0000 O   0  0  0  0  0  0  0  0  0  0  0  0
    7.6598  -10.7014    0.0000 C   0  0  0  0  0  0  0  0  0  0  0  0
    6.9453   -9.4640    0.0000 C   0  0  1  0  0  0  0  0  0  0  0  0
    6.9453  -10.2889    0.0000 C   0  0  2  0  0  0  0  0  0  0  0  0
    9.0887  -10.7014    0.0000 O   0  0  0  0  0  0  0  0  0  0  0  0
    6.2309  -10.7014    0.0000 O   0  0  0  0  0  0  0  0  0  0  0  0
    6.2309   -9.0516    0.0000 C   0  0  0  0  0  0  0  0  0  0  0  0
    9.0887  -11.5264    0.0000 C   0  0  0  0  0  0  0  0  0  0  0  0
    9.8032  -11.9389    0.0000 O   0  0  0  0  0  0  0  0  0  0  0  0
    8.3742  -11.9389    0.0000 C   0  0  0  0  0  0  0  0  0  0  0  0
    9.8032   -6.9891    0.0000 C   0  0  2  0  0  0  0  0  0  0  0  0
    9.8032   -7.8141    0.0000 C   0  0  2  0  0  0  0  0  0  0  0  0
    9.0887   -6.5765    0.0000 O   0  0  0  0  0  0  0  0  0  0  0  0
    9.0887   -8.2266    0.0000 C   0  0  2  0  0  0  0  0  0  0  0  0
    8.3743   -6.9891    0.0000 C   0  0  1  0  0  0  0  0  0  0  0  0
    8.3743   -7.8141    0.0000 C   0  0  1  0  0  0  0  0  0  0  0  0
   10.5177   -6.5765    0.0000 O   0  0  0  0  0  0  0  0  0  0  0  0
   10.5177   -8.2266    0.0000 O   0  0  0  0  0  0  0  0  0  0  0  0
    7.6597   -8.2265    0.0000 O   0  0  0  0  0  0  0  0  0  0  0  0
    7.6597   -6.5765    0.0000 C   0  0  0  0  0  0  0  0  0  0  0  0
    6.9453   -6.9891    0.0000 O   0  0  0  0  0  0  0  0  0  0  0  0
  2  3  1  0  0  0  0
  2  4  1  0  0  0  0
  3  5  1  0  0  0  0
  4  6  1  0  0  0  0
  5  7  1  0  0  0  0
  6  7  1  0  0  0  0
  2  1  1  6  0  0  0
  3  8  1  6  0  0  0
  7  9  1  1  0  0  0
  6 10  1  1  0  0  0
 12 11  2  0  0  0  0
 13 11  1  0  0  0  0
  8 11  1  0  0  0  0
 14 15  1  0  0  0  0
 14 16  1  0  0  0  0
 15 17  1  0  0  0  0
 16 18  1  0  0  0  0
 17 19  1  0  0  0  0
 18 19  1  0  0  0  0
 14 20  1  6  0  0  0
 15 21  1  1  0  0  0
 17  1  1  1  0  0  0
 19 22  1  6  0  0  0
 18 23  1  1  0  0  0
 24 23  1  0  0  0  0
M  END
> <ID>
CHEBI:62917

> <NAME>
2-O-acetyl-alpha-D-abequopyranosyl-(1->3)-alpha-D-mannopyranose

> <DEFINITION>
A glycosylmannose derivative in which 2-O-acetyl-α-D-abequopyranose is linked α(1→3) to α-D-mannopyranose.

> <STAR>
3

> <SYNONYM>
3-O-(2-O-acetyl-3,6-dideoxy-alpha-D-xylo-hexopyranosyl)-alpha-D-mannopyranose

> <IUPAC_NAME>
2-O-acetyl-3,6-dideoxy-alpha-D-xylo-hexopyranosyl-(1->3)-alpha-D-mannopyranose

> <FORMULA>
C14H24O10

> <MASS>
352.33440

> <MONOISOTOPIC_MASS>
352.13695

> <CHARGE>
0

> <SMILES>
C[C@H]1O[C@H](O[C@@H]2[C@H](O)[C@@H](O)O[C@H](CO)[C@H]2O)[C@@H](C[C@H]1O)OC(C)=O

> <INCHI>
InChI=1S/C14H24O10/c1-5-7(17)3-8(22-6(2)16)14(21-5)24-12-10(18)9(4-15)23-13(20)11(12)19/h5,7-15,17-20H,3-4H2,1-2H3/t5-,7-,8-,9-,10-,11+,12+,13+,14-/m1/s1

> <INCHIKEY>
VIJRVKUJEMLCMZ-OYPXQLPDSA-N

> <PUBMED_CITATION>
21466285

$$$$

Marvin  09261111432D          

 33 35  0  0  1  0            999 V2000
   11.4920   -6.8659    0.0000 O   0  0  0  0  0  0  0  0  0  0  0  0
    9.3487   -5.6281    0.0000 C   0  0  2  0  0  0  0  0  0  0  0  0
    9.3487   -6.4531    0.0000 C   0  0  1  0  0  0  0  0  0  0  0  0
   10.7776   -6.4534    0.0000 C   0  0  2  0  0  0  0  0  0  0  0  0
   10.7776   -5.6283    0.0000 O   0  0  0  0  0  0  0  0  0  0  0  0
   10.0632   -6.8656    0.0000 C   0  0  2  0  0  0  0  0  0  0  0  0
   10.0632   -5.2156    0.0000 C   0  0  2  0  0  0  0  0  0  0  0  0
   10.0631   -7.6906    0.0000 O   0  0  0  0  0  0  0  0  0  0  0  0
    8.6341   -6.8656    0.0000 O   0  0  0  0  0  0  0  0  0  0  0  0
    8.6343   -5.2158    0.0000 O   0  0  0  0  0  0  0  0  0  0  0  0
   10.0632   -4.3908    0.0000 C   0  0  0  0  0  0  0  0  0  0  0  0
    9.3488   -3.9783    0.0000 O   0  0  0  0  0  0  0  0  0  0  0  0
    8.6341   -7.6906    0.0000 O   0  0  0  0  0  0  0  0  0  0  0  0
    7.9197   -8.1031    0.0000 C   0  0  2  0  0  0  0  0  0  0  0  0
    9.3487   -8.1032    0.0000 C   0  0  2  0  0  0  0  0  0  0  0  0
    9.3487   -8.9281    0.0000 C   0  0  2  0  0  0  0  0  0  0  0  0
    8.6341   -9.3404    0.0000 C   0  0  1  0  0  0  0  0  0  0  0  0
    7.9197   -8.9281    0.0000 C   0  0  2  0  0  0  0  0  0  0  0  0
   10.0629   -9.3406    0.0000 O   0  0  0  0  0  0  0  0  0  0  0  0
    8.6341  -10.1657    0.0000 O   0  0  0  0  0  0  0  0  0  0  0  0
    7.2051   -9.3406    0.0000 O   0  0  0  0  0  0  0  0  0  0  0  0
    7.2053   -7.6906    0.0000 C   0  0  0  0  0  0  0  0  0  0  0  0
   13.6354   -5.6284    0.0000 C   0  0  1  0  0  0  0  0  0  0  0  0
   13.6354   -6.4534    0.0000 C   0  0  1  0  0  0  0  0  0  0  0  0
   12.9210   -5.2159    0.0000 O   0  0  0  0  0  0  0  0  0  0  0  0
   12.9210   -6.8659    0.0000 C   0  0  2  0  0  0  0  0  0  0  0  0
   12.2065   -5.6284    0.0000 C   0  0  1  0  0  0  0  0  0  0  0  0
   12.2065   -6.4534    0.0000 C   0  0  1  0  0  0  0  0  0  0  0  0
   14.3499   -5.2158    0.0000 O   0  0  0  0  0  0  0  0  0  0  0  0
   14.3499   -6.8659    0.0000 O   0  0  0  0  0  0  0  0  0  0  0  0
   12.9209   -7.6909    0.0000 O   0  0  0  0  0  0  0  0  0  0  0  0
   11.4920   -5.2159    0.0000 C   0  0  0  0  0  0  0  0  0  0  0  0
   11.4920   -4.3909    0.0000 O   0  0  0  0  0  0  0  0  0  0  0  0
  2 10  1  1  0  0  0
  3  2  1  0  0  0  0
  3  9  1  1  0  0  0
  4  5  1  0  0  0  0
  4  6  1  0  0  0  0
  6  3  1  0  0  0  0
  6  8  1  6  0  0  0
  7  2  1  0  0  0  0
  5  7  1  0  0  0  0
  7 11  1  1  0  0  0
 11 12  1  0  0  0  0
  4  1  1  1  0  0  0
 14 13  1  0  0  0  0
 15 13  1  0  0  0  0
 15  8  1  1  0  0  0
 15 16  1  0  0  0  0
 16 19  1  1  0  0  0
 16 17  1  0  0  0  0
 17 20  1  6  0  0  0
 17 18  1  0  0  0  0
 18 14  1  0  0  0  0
 18 21  1  6  0  0  0
 14 22  1  6  0  0  0
 23 24  1  0  0  0  0
 23 25  1  0  0  0  0
 24 26  1  0  0  0  0
 25 27  1  0  0  0  0
 26 28  1  0  0  0  0
 27 28  1  0  0  0  0
 23 29  1  1  0  0  0
 24 30  1  6  0  0  0
 26 31  1  1  0  0  0
 28  1  1  6  0  0  0
 27 32  1  1  0  0  0
 32 33  1  0  0  0  0
M  END
> <ID>
CHEBI:62948

> <NAME>
alpha-L-Fucp-(1->2)-beta-D-Galp-(1->4)-beta-D-Glcp

> <DEFINITION>
A trisaccharide consisting of L-fucose linked α(1→2') to a β-lactose unit.

> <STAR>
3

> <SYNONYM>
H type 6; Fuca1-2Galb1-4Glcb; alphaFuc(1-2)betaGal(1-4)betaGlc; alpha-L-fucosyl-(1->2)-beta-D-galactosyl-(1->4)-beta-D-glucose; alpha-L-Fuc-(1->2)-beta-D-Gal-(1->4)-beta-D-Glc; 6-deoxy-alpha-L-galactopyranosyl-(1->2)-beta-D-galactopyranosyl-(1->4)-beta-D-glucopyranose; 2'-O-alpha-L-fucopyranosyllactose

> <IUPAC_NAME>
alpha-L-fucopyranosyl-(1->2)-beta-D-galactopyranosyl-(1->4)-beta-D-glucopyranose

> <FORMULA>
C18H32O15

> <MASS>
488.43770

> <MONOISOTOPIC_MASS>
488.17412

> <CHARGE>
0

> <SMILES>
C[C@@H]1O[C@@H](O[C@@H]2[C@@H](O)[C@@H](O)[C@@H](CO)O[C@H]2O[C@@H]2[C@@H](CO)O[C@@H](O)[C@H](O)[C@H]2O)[C@@H](O)[C@H](O)[C@@H]1O

> <INCHI>
InChI=1S/C18H32O15/c1-4-7(21)9(23)13(27)17(29-4)33-15-10(24)8(22)5(2-19)31-18(15)32-14-6(3-20)30-16(28)12(26)11(14)25/h4-28H,2-3H2,1H3/t4-,5+,6+,7+,8-,9+,10-,11+,12+,13-,14+,15+,16+,17-,18-/m0/s1

> <INCHIKEY>
SNFSYLYCDAVZGP-OHWKOEMOSA-N

> <REAXYS_REGISTRY_NUMBER>
5778881

> <PUBMED_CITATION>
1609521; 19443021; 25568069; 31537530; 8737251

$$$$

Marvin  09261112122D          

 33 35  0  0  1  0            999 V2000
   11.1745  -17.3547    0.0000 O   0  0  0  0  0  0  0  0  0  0  0  0
    9.0312  -18.5926    0.0000 C   0  0  2  0  0  0  0  0  0  0  0  0
    9.7458  -19.0049    0.0000 C   0  0  1  0  0  0  0  0  0  0  0  0
   10.4602  -17.7674    0.0000 C   0  0  2  0  0  0  0  0  0  0  0  0
    9.7456  -17.3551    0.0000 O   0  0  0  0  0  0  0  0  0  0  0  0
   10.4602  -18.5922    0.0000 C   0  0  2  0  0  0  0  0  0  0  0  0
    9.0310  -17.7676    0.0000 C   0  0  2  0  0  0  0  0  0  0  0  0
   11.1747  -19.0046    0.0000 O   0  0  0  0  0  0  0  0  0  0  0  0
    9.7459  -19.8300    0.0000 O   0  0  0  0  0  0  0  0  0  0  0  0
    8.3171  -19.0054    0.0000 O   0  0  0  0  0  0  0  0  0  0  0  0
    8.3166  -17.3554    0.0000 C   0  0  0  0  0  0  0  0  0  0  0  0
    7.6024  -17.7681    0.0000 O   0  0  0  0  0  0  0  0  0  0  0  0
   10.4605  -20.2423    0.0000 O   0  0  0  0  0  0  0  0  0  0  0  0
   10.4608  -21.0673    0.0000 C   0  0  2  0  0  0  0  0  0  0  0  0
   11.1751  -19.8296    0.0000 C   0  0  2  0  0  0  0  0  0  0  0  0
   11.8895  -20.2418    0.0000 C   0  0  2  0  0  0  0  0  0  0  0  0
   11.8895  -21.0668    0.0000 C   0  0  1  0  0  0  0  0  0  0  0  0
   11.1754  -21.4796    0.0000 C   0  0  2  0  0  0  0  0  0  0  0  0
   12.6038  -19.8293    0.0000 O   0  0  0  0  0  0  0  0  0  0  0  0
   12.6044  -21.4793    0.0000 O   0  0  0  0  0  0  0  0  0  0  0  0
   11.1756  -22.3047    0.0000 O   0  0  0  0  0  0  0  0  0  0  0  0
    9.7464  -21.4799    0.0000 C   0  0  0  0  0  0  0  0  0  0  0  0
   11.8890  -15.2922    0.0000 C   0  0  1  0  0  0  0  0  0  0  0  0
   11.8890  -16.1172    0.0000 C   0  0  1  0  0  0  0  0  0  0  0  0
   11.1745  -14.8797    0.0000 O   0  0  0  0  0  0  0  0  0  0  0  0
   11.1745  -16.5297    0.0000 C   0  0  2  0  0  0  0  0  0  0  0  0
   10.4600  -15.2922    0.0000 C   0  0  1  0  0  0  0  0  0  0  0  0
   10.4600  -16.1172    0.0000 C   0  0  2  0  0  0  0  0  0  0  0  0
   12.6035  -14.8797    0.0000 O   0  0  0  0  0  0  0  0  0  0  0  0
   12.6035  -16.5297    0.0000 O   0  0  0  0  0  0  0  0  0  0  0  0
    9.7456  -16.5297    0.0000 O   0  0  0  0  0  0  0  0  0  0  0  0
    9.7456  -14.8797    0.0000 C   0  0  0  0  0  0  0  0  0  0  0  0
    9.0311  -15.2922    0.0000 O   0  0  0  0  0  0  0  0  0  0  0  0
  2 10  1  1  0  0  0
  3  2  1  0  0  0  0
  3  9  1  1  0  0  0
  4  5  1  0  0  0  0
  4  6  1  0  0  0  0
  6  3  1  0  0  0  0
  6  8  1  6  0  0  0
  7  2  1  0  0  0  0
  5  7  1  0  0  0  0
  7 11  1  1  0  0  0
 11 12  1  0  0  0  0
  4  1  1  1  0  0  0
 14 13  1  0  0  0  0
 15 13  1  0  0  0  0
 15  8  1  1  0  0  0
 15 16  1  0  0  0  0
 16 19  1  1  0  0  0
 16 17  1  0  0  0  0
 17 20  1  6  0  0  0
 17 18  1  0  0  0  0
 18 14  1  0  0  0  0
 18 21  1  6  0  0  0
 14 22  1  6  0  0  0
 23 24  1  0  0  0  0
 23 25  1  0  0  0  0
 24 26  1  0  0  0  0
 25 27  1  0  0  0  0
 26 28  1  0  0  0  0
 27 28  1  0  0  0  0
 23 29  1  1  0  0  0
 24 30  1  6  0  0  0
 26  1  1  1  0  0  0
 28 31  1  1  0  0  0
 27 32  1  1  0  0  0
 33 32  1  0  0  0  0
M  END
> <ID>
CHEBI:62949

> <NAME>
alpha-L-Fucp-(1->2)-beta-D-Galp-(1->3)-beta-D-Galp

> <DEFINITION>
A α-L-Fucp-(1→2)-β-D-Galp-(1→3)-D-Galp that has β-configuration at the anomeric hydroxy group.

> <STAR>
3

> <SYNONYM>
H type 5; alphaFuc(1-2)betaGal(1-3)betaGal; alpha-L-fucosyl-(1->2)-beta-D-galactosyl-(1->3)-beta-D-galactose; alpha-L-Fuc-(1->2)-beta-D-Gal-(1->3)-beta-D-Gal; 6-deoxy-alpha-L-galactopyranosyl-(1->2)-beta-D-galactopyranosyl-(1->3)-beta-D-galactopyranose

> <IUPAC_NAME>
alpha-L-fucopyranosyl-(1->2)-beta-D-galactopyranosyl-(1->3)-beta-D-galactopyranose

> <FORMULA>
C18H32O15

> <MASS>
488.43770

> <MONOISOTOPIC_MASS>
488.17412

> <CHARGE>
0

> <SMILES>
C[C@@H]1O[C@@H](O[C@@H]2[C@@H](O)[C@@H](O)[C@@H](CO)O[C@H]2O[C@@H]2[C@@H](O)[C@H](O)O[C@H](CO)[C@@H]2O)[C@@H](O)[C@H](O)[C@@H]1O

> <INCHI>
InChI=1S/C18H32O15/c1-4-7(21)10(24)12(26)17(29-4)33-15-11(25)8(22)5(2-19)31-18(15)32-14-9(23)6(3-20)30-16(28)13(14)27/h4-28H,2-3H2,1H3/t4-,5+,6+,7+,8-,9-,10+,11-,12-,13+,14-,15+,16+,17-,18-/m0/s1

> <INCHIKEY>
JAGCYJQYIZLILX-UZXJMBPOSA-N

> <PUBMED_CITATION>
1609521; 8737251

$$$$

Marvin  10041113532D          

 45 48  0  0  1  0            999 V2000
    6.8567   -5.3774    0.0000 C   0  0  1  0  0  0  0  0  0  0  0  0
    6.8567   -6.2024    0.0000 C   0  0  1  0  0  0  0  0  0  0  0  0
    6.1422   -4.9649    0.0000 O   0  0  0  0  0  0  0  0  0  0  0  0
    6.1422   -6.6149    0.0000 C   0  0  2  0  0  0  0  0  0  0  0  0
    5.4277   -5.3774    0.0000 C   0  0  1  0  0  0  0  0  0  0  0  0
    5.4277   -6.2024    0.0000 C   0  0  2  0  0  0  0  0  0  0  0  0
    7.5711   -4.9649    0.0000 O   0  0  0  0  0  0  0  0  0  0  0  0
    7.5711   -6.6149    0.0000 O   0  0  0  0  0  0  0  0  0  0  0  0
    6.1422   -7.4399    0.0000 O   0  0  0  0  0  0  0  0  0  0  0  0
    4.7132   -6.6149    0.0000 O   0  0  0  0  0  0  0  0  0  0  0  0
    4.7132   -4.9649    0.0000 C   0  0  0  0  0  0  0  0  0  0  0  0
    3.9988   -5.3774    0.0000 O   0  0  0  0  0  0  0  0  0  0  0  0
   10.4291   -4.9649    0.0000 C   0  0  1  0  0  0  0  0  0  0  0  0
   10.4291   -5.7899    0.0000 C   0  0  1  0  0  0  0  0  0  0  0  0
    9.7145   -4.5524    0.0000 O   0  0  0  0  0  0  0  0  0  0  0  0
    9.7145   -6.2024    0.0000 C   0  0  2  0  0  0  0  0  0  0  0  0
    9.0001   -4.9649    0.0000 C   0  0  1  0  0  0  0  0  0  0  0  0
    9.0001   -5.7899    0.0000 C   0  0  2  0  0  0  0  0  0  0  0  0
   11.1435   -4.5524    0.0000 O   0  0  0  0  0  0  0  0  0  0  0  0
   11.1435   -6.2024    0.0000 O   0  0  0  0  0  0  0  0  0  0  0  0
    9.7145   -7.0274    0.0000 O   0  0  0  0  0  0  0  0  0  0  0  0
    8.2856   -6.2024    0.0000 O   0  0  0  0  0  0  0  0  0  0  0  0
    8.2856   -4.5524    0.0000 C   0  0  0  0  0  0  0  0  0  0  0  0
   14.0014   -4.5524    0.0000 C   0  0  1  0  0  0  0  0  0  0  0  0
   14.0014   -5.3774    0.0000 C   0  0  1  0  0  0  0  0  0  0  0  0
   13.2869   -4.1399    0.0000 O   0  0  0  0  0  0  0  0  0  0  0  0
   13.2869   -5.7899    0.0000 C   0  0  2  0  0  0  0  0  0  0  0  0
   12.5724   -4.5524    0.0000 C   0  0  1  0  0  0  0  0  0  0  0  0
   12.5724   -5.3774    0.0000 C   0  0  2  0  0  0  0  0  0  0  0  0
   14.7159   -4.1399    0.0000 O   0  0  0  0  0  0  0  0  0  0  0  0
   14.7159   -5.7899    0.0000 O   0  0  0  0  0  0  0  0  0  0  0  0
   13.2869   -6.6149    0.0000 O   0  0  0  0  0  0  0  0  0  0  0  0
   11.8580   -5.7899    0.0000 O   0  0  0  0  0  0  0  0  0  0  0  0
   11.8580   -4.1399    0.0000 C   0  0  0  0  0  0  0  0  0  0  0  0
   17.5738   -4.1399    0.0000 C   0  0  0  0  0  0  0  0  0  0  0  0
   17.5738   -4.9649    0.0000 C   0  0  1  0  0  0  0  0  0  0  0  0
   16.8593   -3.7274    0.0000 O   0  0  0  0  0  0  0  0  0  0  0  0
   16.8593   -5.3774    0.0000 C   0  0  2  0  0  0  0  0  0  0  0  0
   16.1448   -4.1399    0.0000 C   0  0  1  0  0  0  0  0  0  0  0  0
   16.1448   -4.9649    0.0000 C   0  0  2  0  0  0  0  0  0  0  0  0
   18.2883   -3.7273    0.0000 O   0  0  0  0  0  0  0  0  0  0  0  0
   18.2883   -5.3774    0.0000 O   0  0  0  0  0  0  0  0  0  0  0  0
   16.8593   -6.2024    0.0000 O   0  0  0  0  0  0  0  0  0  0  0  0
   15.4304   -5.3773    0.0000 O   0  0  0  0  0  0  0  0  0  0  0  0
   15.4304   -3.7274    0.0000 C   0  0  0  0  0  0  0  0  0  0  0  0
  1  2  1  0  0  0  0
  1  3  1  0  0  0  0
  2  4  1  0  0  0  0
  3  5  1  0  0  0  0
  4  6  1  0  0  0  0
  5  6  1  0  0  0  0
  1  7  1  1  0  0  0
  2  8  1  6  0  0  0
  4  9  1  1  0  0  0
  6 10  1  1  0  0  0
  5 11  1  1  0  0  0
 12 11  1  0  0  0  0
 13 14  1  0  0  0  0
 13 15  1  0  0  0  0
 14 16  1  0  0  0  0
 15 17  1  0  0  0  0
 16 18  1  0  0  0  0
 17 18  1  0  0  0  0
 13 19  1  1  0  0  0
 14 20  1  6  0  0  0
 16 21  1  1  0  0  0
 18 22  1  1  0  0  0
 17 23  1  1  0  0  0
  7 23  1  0  0  0  0
 24 25  1  0  0  0  0
 24 26  1  0  0  0  0
 25 27  1  0  0  0  0
 26 28  1  0  0  0  0
 27 29  1  0  0  0  0
 28 29  1  0  0  0  0
 24 30  1  1  0  0  0
 25 31  1  6  0  0  0
 27 32  1  1  0  0  0
 29 33  1  1  0  0  0
 28 34  1  1  0  0  0
 19 34  1  0  0  0  0
 35 36  1  0  0  0  0
 35 37  1  0  0  0  0
 36 38  1  0  0  0  0
 37 39  1  0  0  0  0
 38 40  1  0  0  0  0
 39 40  1  0  0  0  0
 35 41  1  0  0  0  0
 36 42  1  6  0  0  0
 38 43  1  1  0  0  0
 40 44  1  1  0  0  0
 39 45  1  1  0  0  0
 30 45  1  0  0  0  0
M  END
> <ID>
CHEBI:62999

> <NAME>
beta-D-Galp-(1->6)-beta-D-Galp-(1->6)-beta-D-Galp-(1->6)-D-Galp

> <DEFINITION>
A galactotetraose in which the four D-galactose units are connected by three β-(1→6)-linkages.

> <STAR>
3

> <SYNONYM>
Galbeta1-6Galbeta1-6Galbeta1-6Gal; beta-D-galactosyl-(1->6)-beta-D-galactosyl-(1->6)-beta-D-galactosyl-(1->6)-D-galactose; beta-D-Gal-(1->6)-beta-D-Gal-(1->6)-beta-D-Gal-(1->6)-D-Gal; beta-(1->6)-galactotetraose; (Gal)4

> <IUPAC_NAME>
beta-D-galactopyranosyl-(1->6)-beta-D-galactopyranosyl-(1->6)-beta-D-galactopyranosyl-(1->6)-D-galactopyranose

> <FORMULA>
C24H42O21

> <MASS>
666.57770

> <MONOISOTOPIC_MASS>
666.22186

> <CHARGE>
0

> <SMILES>
OC[C@H]1O[C@@H](OC[C@H]2O[C@@H](OC[C@H]3O[C@@H](OC[C@H]4OC(O)[C@H](O)[C@@H](O)[C@H]4O)[C@H](O)[C@@H](O)[C@H]3O)[C@H](O)[C@@H](O)[C@H]2O)[C@H](O)[C@@H](O)[C@H]1O

> <INCHI>
InChI=1S/C24H42O21/c25-1-5-9(26)14(31)18(35)22(43-5)40-3-7-11(28)16(33)20(37)24(45-7)41-4-8-12(29)15(32)19(36)23(44-8)39-2-6-10(27)13(30)17(34)21(38)42-6/h5-38H,1-4H2/t5-,6-,7-,8-,9+,10+,11+,12+,13+,14+,15+,16+,17-,18-,19-,20-,21?,22-,23-,24-/m1/s1

> <INCHIKEY>
DFKPJBWUFOESDV-KKGWACKYSA-N

> <REAXYS_REGISTRY_NUMBER>
1696672

> <KEGG_GLYCAN_ACCESSION>
G00998

> <PUBMED_CITATION>
7763824

$$$$

Marvin  10211111042D          

 20 21  0  0  0  0            999 V2000
   15.0091   -5.5024    0.0000 N   0  0  0  0  0  0  0  0  0  0  0  0
   15.0091   -4.6350    0.0000 C   0  0  0  0  0  0  0  0  0  0  0  0
   15.7139   -4.2375    0.0000 N   0  0  0  0  0  0  0  0  0  0  0  0
   16.4368   -4.6350    0.0000 C   0  0  0  0  0  0  0  0  0  0  0  0
   16.4368   -5.5024    0.0000 C   0  0  0  0  0  0  0  0  0  0  0  0
   15.7139   -5.9000    0.0000 C   0  0  0  0  0  0  0  0  0  0  0  0
   17.2229   -5.7283    0.0000 N   0  0  0  0  0  0  0  0  0  0  0  0
   17.7199   -5.0687    0.0000 C   0  0  0  0  0  0  0  0  0  0  0  0
   17.2229   -4.4091    0.0000 N   0  0  0  0  0  0  0  0  0  0  0  0
   15.7095   -6.7250    0.0000 C   0  0  0  0  0  0  0  0  0  0  0  0
   16.4217   -7.1414    0.0000 N   0  0  0  0  0  0  0  0  0  0  0  0
   14.9928   -7.1337    0.0000 O   0  0  0  0  0  0  0  0  0  0  0  0
   17.1363   -6.7289    0.0000 C   0  0  0  0  0  0  0  0  0  0  0  0
   17.8506   -7.1414    0.0000 C   0  0  0  0  0  0  0  0  0  0  0  0
   18.5651   -6.7289    0.0000 C   0  0  0  0  0  0  0  0  0  0  0  0
   19.2796   -7.1414    0.0000 C   0  0  0  0  0  0  0  0  0  0  0  0
   19.9939   -6.7289    0.0000 C   0  0  0  0  0  0  0  0  0  0  0  0
   20.7084   -7.1414    0.0000 C   0  0  0  0  0  0  0  0  0  0  0  0
   21.4229   -6.7289    0.0000 O   0  0  0  0  0  0  0  0  0  0  0  0
   20.7084   -7.9663    0.0000 O   0  0  0  0  0  0  0  0  0  0  0  0
  5  4  2  0  0  0  0
  9  4  1  0  0  0  0
  3  4  1  0  0  0  0
  7  5  1  0  0  0  0
  6  5  1  0  0  0  0
  8  7  2  0  0  0  0
  8  9  1  0  0  0  0
  2  3  2  0  0  0  0
  2  1  1  0  0  0  0
  6  1  2  0  0  0  0
 11 10  1  0  0  0  0
 12 10  2  0  0  0  0
  6 10  1  0  0  0  0
 14 13  1  0  0  0  0
 15 14  1  0  0  0  0
 16 15  1  0  0  0  0
 17 16  1  0  0  0  0
 18 17  1  0  0  0  0
 11 13  1  0  0  0  0
 19 18  1  0  0  0  0
 20 18  2  0  0  0  0
M  END
> <ID>
CHEBI:63086

> <NAME>
N-purin-6-oyl-epsilon-aminocaproic acid

> <DEFINITION>
A purine derivative that consists of 6-aminohexanoic acid having a purin-6-oyl group attached to the amino function via an amide bond.

> <STAR>
3

> <SYNONYM>
N-purin-6-oyl-epsilon-aminohexanoic acid; N-purin-6-oyl-6-aminohexanoic acid; N-purin-6-oyl-6-aminocaproic acid

> <IUPAC_NAME>
6-[(9H-purin-6-ylcarbonyl)amino]hexanoic acid

> <FORMULA>
C12H15N5O3

> <MASS>
277.27920

> <MONOISOTOPIC_MASS>
277.11749

> <CHARGE>
0

> <SMILES>
OC(=O)CCCCCNC(=O)c1ncnc2[nH]cnc12

> <INCHI>
InChI=1S/C12H15N5O3/c18-8(19)4-2-1-3-5-13-12(20)10-9-11(16-6-14-9)17-7-15-10/h6-7H,1-5H2,(H,13,20)(H,18,19)(H,14,15,16,17)

> <INCHIKEY>
FAONSLBBQUHFBV-UHFFFAOYSA-N

> <PUBMED_CITATION>
14253484

$$$$

Marvin  10211111592D          

 12 13  0  0  0  0            999 V2000
   15.0088   -5.5023    0.0000 N   0  0  0  0  0  0  0  0  0  0  0  0
   15.0088   -4.6349    0.0000 C   0  0  0  0  0  0  0  0  0  0  0  0
   15.7135   -4.2374    0.0000 N   0  0  0  0  0  0  0  0  0  0  0  0
   16.4364   -4.6349    0.0000 C   0  0  0  0  0  0  0  0  0  0  0  0
   16.4364   -5.5023    0.0000 C   0  0  0  0  0  0  0  0  0  0  0  0
   15.7135   -5.8999    0.0000 C   0  0  0  0  0  0  0  0  0  0  0  0
   17.2225   -5.7282    0.0000 N   0  0  0  0  0  0  0  0  0  0  0  0
   17.7194   -5.0686    0.0000 C   0  0  0  0  0  0  0  0  0  0  0  0
   17.2225   -4.4090    0.0000 N   0  0  0  0  0  0  0  0  0  0  0  0
   15.7091   -6.7249    0.0000 C   0  0  0  0  0  0  0  0  0  0  0  0
   16.4213   -7.1412    0.0000 N   0  0  0  0  0  0  0  0  0  0  0  0
   14.9924   -7.1335    0.0000 O   0  0  0  0  0  0  0  0  0  0  0  0
  5  4  2  0  0  0  0
  9  4  1  0  0  0  0
  3  4  1  0  0  0  0
  7  5  1  0  0  0  0
  6  5  1  0  0  0  0
  8  7  2  0  0  0  0
  8  9  1  0  0  0  0
  2  3  2  0  0  0  0
  2  1  1  0  0  0  0
  6  1  2  0  0  0  0
 11 10  1  0  0  0  0
 12 10  2  0  0  0  0
  6 10  1  0  0  0  0
M  END
> <ID>
CHEBI:63088

> <NAME>
purine-6-caboxamide

> <DEFINITION>
An  aromatic amide that is purine bearing a carboxamido substituent at position 6.

> <STAR>
3

> <SYNONYM>
purine-6-carboxamide; Purin-6-carboxamid; Purin-6-carbonsaeureamid; 6-carboxamidopurine

> <IUPAC_NAME>
9H-purine-6-carboxamide

> <FORMULA>
C6H5N5O

> <MASS>
163.13680

> <MONOISOTOPIC_MASS>
163.04941

> <CHARGE>
0

> <SMILES>
NC(=O)c1ncnc2[nH]cnc12

> <INCHI>
InChI=1S/C6H5N5O/c7-5(12)3-4-6(10-1-8-3)11-2-9-4/h1-2H,(H2,7,12)(H,8,9,10,11)

> <INCHIKEY>
DDSCCYSKFCZQMP-UHFFFAOYSA-N

> <REAXYS_REGISTRY_NUMBER>
517129

> <PUBMED_CITATION>
14253484

$$$$

Marvin  10271113482D          

 36 38  0  0  1  0            999 V2000
   11.4900   -1.7193    0.0000 O   0  0  0  0  0  0  0  0  0  0  0  0
   10.7757   -2.1318    0.0000 C   0  0  0  0  0  0  0  0  0  0  0  0
   10.7757   -2.9568    0.0000 C   0  0  1  0  0  0  0  0  0  0  0  0
   10.0612   -1.7193    0.0000 O   0  0  0  0  0  0  0  0  0  0  0  0
   10.0612   -3.3693    0.0000 C   0  0  0  0  0  0  0  0  0  0  0  0
    9.3466   -2.1318    0.0000 C   0  0  1  0  0  0  0  0  0  0  0  0
    9.3466   -2.9568    0.0000 C   0  0  1  0  0  0  0  0  0  0  0  0
   11.4900   -3.3693    0.0000 N   0  0  0  0  0  0  0  0  0  0  0  0
    8.6322   -3.3693    0.0000 O   0  0  0  0  0  0  0  0  0  0  0  0
    8.6322   -1.7193    0.0000 C   0  0  0  0  0  0  0  0  0  0  0  0
    7.9176   -2.1318    0.0000 O   0  0  0  0  0  0  0  0  0  0  0  0
   11.4900   -4.1943    0.0000 C   0  0  0  0  0  0  0  0  0  0  0  0
   12.2045   -4.6068    0.0000 O   0  0  0  0  0  0  0  0  0  0  0  0
   10.7757   -4.6068    0.0000 C   0  0  0  0  0  0  0  0  0  0  0  0
    7.9178   -3.7818    0.0000 C   0  0  1  0  0  0  0  0  0  0  0  0
    7.9178   -4.6068    0.0000 C   0  0  1  0  0  0  0  0  0  0  0  0
    7.2032   -3.3693    0.0000 O   0  0  0  0  0  0  0  0  0  0  0  0
    7.2032   -5.0195    0.0000 C   0  0  2  0  0  0  0  0  0  0  0  0
    6.4888   -3.7818    0.0000 C   0  0  1  0  0  0  0  0  0  0  0  0
    6.4888   -4.6068    0.0000 C   0  0  2  0  0  0  0  0  0  0  0  0
    8.6322   -5.0195    0.0000 O   0  0  0  0  0  0  0  0  0  0  0  0
    7.2032   -5.8445    0.0000 O   0  0  0  0  0  0  0  0  0  0  0  0
    5.7743   -5.0195    0.0000 O   0  0  0  0  0  0  0  0  0  0  0  0
    5.7743   -3.3693    0.0000 C   0  0  0  0  0  0  0  0  0  0  0  0
    5.0600   -3.7818    0.0000 O   0  0  0  0  0  0  0  0  0  0  0  0
    6.4887   -6.2568    0.0000 C   0  0  2  0  0  0  0  0  0  0  0  0
    6.4887   -7.0818    0.0000 C   0  0  1  0  0  0  0  0  0  0  0  0
    5.7743   -5.8445    0.0000 O   0  0  0  0  0  0  0  0  0  0  0  0
    5.7743   -7.4943    0.0000 C   0  0  2  0  0  0  0  0  0  0  0  0
    5.0599   -6.2568    0.0000 C   0  0  1  0  0  0  0  0  0  0  0  0
    5.0599   -7.0818    0.0000 C   0  0  2  0  0  0  0  0  0  0  0  0
    7.2032   -7.4943    0.0000 O   0  0  0  0  0  0  0  0  0  0  0  0
    5.7743   -8.3193    0.0000 O   0  0  0  0  0  0  0  0  0  0  0  0
    4.3453   -7.4943    0.0000 O   0  0  0  0  0  0  0  0  0  0  0  0
    4.3453   -5.8445    0.0000 C   0  0  0  0  0  0  0  0  0  0  0  0
    3.6309   -6.2568    0.0000 O   0  0  0  0  0  0  0  0  0  0  0  0
  2  3  1  0  0  0  0
  2  4  1  0  0  0  0
  3  5  1  0  0  0  0
  4  6  1  0  0  0  0
  5  7  1  0  0  0  0
  6  7  1  0  0  0  0
  2  1  1  0  0  0  0
  3  8  1  6  0  0  0
  7  9  1  6  0  0  0
  6 10  1  1  0  0  0
 11 10  1  0  0  0  0
 13 12  2  0  0  0  0
 14 12  1  0  0  0  0
  8 12  1  0  0  0  0
 15 16  1  0  0  0  0
 15 17  1  0  0  0  0
 16 18  1  0  0  0  0
 17 19  1  0  0  0  0
 18 20  1  0  0  0  0
 19 20  1  0  0  0  0
 15  9  1  1  0  0  0
 16 21  1  6  0  0  0
 18 22  1  1  0  0  0
 20 23  1  1  0  0  0
 19 24  1  1  0  0  0
 25 24  1  0  0  0  0
 26 27  1  0  0  0  0
 26 28  1  0  0  0  0
 27 29  1  0  0  0  0
 28 30  1  0  0  0  0
 29 31  1  0  0  0  0
 30 31  1  0  0  0  0
 26 22  1  6  0  0  0
 27 32  1  6  0  0  0
 29 33  1  1  0  0  0
 31 34  1  1  0  0  0
 30 35  1  1  0  0  0
 36 35  1  0  0  0  0
M  END
> <ID>
CHEBI:63117

> <NAME>
alpha-D-Gal-(1->3)-beta-D-Gal-(1->4)-3-deoxy-D-GlcNAc

> <DEFINITION>
A three-membered deoxy oligosaccharide which has a 2-acetamido-2,3-dideoxy-D-ribo-hexose unit at the reducing end with an α-D-galactosyl-(1→3)-β-D-galactosyl group attached at the 4-position.

> <STAR>
3

> <SYNONYM>
Galalpha1-3Galbeta1-4[3-deoxy]GlcNAc; alpha-D-Galp-(1->3)-beta-D-Galp-(1->4)-3-deoxy-D-GlcNAc; alpha-D-galactosyl-(1->3)-beta-D-galactosyl-(1->4)-3-deoxy-N-acetyl-D-glucosamine; alpha-D-galactosyl-(1->3)-beta-D-galactosyl-(1->4)-2-acetamido-2,3-dideoxy-D-ribo-hexose

> <IUPAC_NAME>
alpha-D-galactopyranosyl-(1->3)-beta-D-galactopyranosyl-(1->4)-2-acetamido-2,3-dideoxy-D-ribo-hexopyranose

> <FORMULA>
C20H35NO15

> <MASS>
529.48960

> <MONOISOTOPIC_MASS>
529.20067

> <CHARGE>
0

> <SMILES>
CC(=O)N[C@@H]1C[C@H](O[C@@H]2O[C@H](CO)[C@H](O)[C@H](O[C@H]3O[C@H](CO)[C@H](O)[C@H](O)[C@H]3O)[C@H]2O)[C@@H](CO)OC1O

> <INCHI>
InChI=1S/C20H35NO15/c1-6(25)21-7-2-8(9(3-22)32-18(7)31)33-20-16(30)17(13(27)11(5-24)35-20)36-19-15(29)14(28)12(26)10(4-23)34-19/h7-20,22-24,26-31H,2-5H2,1H3,(H,21,25)/t7-,8+,9-,10-,11-,12+,13+,14+,15-,16-,17+,18?,19-,20-/m1/s1

> <INCHIKEY>
VEAVMGSLNYLYBY-ODZULQQKSA-N

> <PUBMED_CITATION>
9753344

$$$$

Marvin  10271114162D          

 36 38  0  0  1  0            999 V2000
   11.4900   -1.7193    0.0000 O   0  0  0  0  0  0  0  0  0  0  0  0
   10.7757   -2.1318    0.0000 C   0  0  0  0  0  0  0  0  0  0  0  0
   10.7757   -2.9568    0.0000 C   0  0  1  0  0  0  0  0  0  0  0  0
   10.0612   -1.7193    0.0000 O   0  0  0  0  0  0  0  0  0  0  0  0
   10.0612   -3.3693    0.0000 C   0  0  2  0  0  0  0  0  0  0  0  0
    9.3466   -2.1318    0.0000 C   0  0  1  0  0  0  0  0  0  0  0  0
    9.3466   -2.9568    0.0000 C   0  0  1  0  0  0  0  0  0  0  0  0
   11.4900   -3.3693    0.0000 N   0  0  0  0  0  0  0  0  0  0  0  0
    8.6322   -3.3693    0.0000 O   0  0  0  0  0  0  0  0  0  0  0  0
    8.6322   -1.7193    0.0000 C   0  0  0  0  0  0  0  0  0  0  0  0
   11.4900   -4.1943    0.0000 C   0  0  0  0  0  0  0  0  0  0  0  0
   12.2045   -4.6068    0.0000 O   0  0  0  0  0  0  0  0  0  0  0  0
   10.7757   -4.6068    0.0000 C   0  0  0  0  0  0  0  0  0  0  0  0
    7.9178   -3.7818    0.0000 C   0  0  1  0  0  0  0  0  0  0  0  0
    7.9178   -4.6068    0.0000 C   0  0  1  0  0  0  0  0  0  0  0  0
    7.2032   -3.3693    0.0000 O   0  0  0  0  0  0  0  0  0  0  0  0
    7.2032   -5.0195    0.0000 C   0  0  2  0  0  0  0  0  0  0  0  0
    6.4888   -3.7818    0.0000 C   0  0  1  0  0  0  0  0  0  0  0  0
    6.4888   -4.6068    0.0000 C   0  0  2  0  0  0  0  0  0  0  0  0
    8.6322   -5.0195    0.0000 O   0  0  0  0  0  0  0  0  0  0  0  0
    7.2032   -5.8445    0.0000 O   0  0  0  0  0  0  0  0  0  0  0  0
    5.7743   -5.0195    0.0000 O   0  0  0  0  0  0  0  0  0  0  0  0
    5.7743   -3.3693    0.0000 C   0  0  0  0  0  0  0  0  0  0  0  0
    5.0600   -3.7818    0.0000 O   0  0  0  0  0  0  0  0  0  0  0  0
    6.4887   -6.2568    0.0000 C   0  0  2  0  0  0  0  0  0  0  0  0
    6.4887   -7.0818    0.0000 C   0  0  1  0  0  0  0  0  0  0  0  0
    5.7743   -5.8445    0.0000 O   0  0  0  0  0  0  0  0  0  0  0  0
    5.7743   -7.4943    0.0000 C   0  0  2  0  0  0  0  0  0  0  0  0
    5.0599   -6.2568    0.0000 C   0  0  1  0  0  0  0  0  0  0  0  0
    5.0599   -7.0818    0.0000 C   0  0  2  0  0  0  0  0  0  0  0  0
    7.2032   -7.4943    0.0000 O   0  0  0  0  0  0  0  0  0  0  0  0
    5.7743   -8.3193    0.0000 O   0  0  0  0  0  0  0  0  0  0  0  0
    4.3453   -7.4943    0.0000 O   0  0  0  0  0  0  0  0  0  0  0  0
    4.3453   -5.8445    0.0000 C   0  0  0  0  0  0  0  0  0  0  0  0
    3.6309   -6.2568    0.0000 O   0  0  0  0  0  0  0  0  0  0  0  0
   10.0612   -4.1943    0.0000 O   0  0  0  0  0  0  0  0  0  0  0  0
  2  3  1  0  0  0  0
  2  4  1  0  0  0  0
  3  5  1  0  0  0  0
  4  6  1  0  0  0  0
  5  7  1  0  0  0  0
  6  7  1  0  0  0  0
  2  1  1  0  0  0  0
  3  8  1  6  0  0  0
  7  9  1  6  0  0  0
  6 10  1  1  0  0  0
 12 11  2  0  0  0  0
 13 11  1  0  0  0  0
  8 11  1  0  0  0  0
 14 15  1  0  0  0  0
 14 16  1  0  0  0  0
 15 17  1  0  0  0  0
 16 18  1  0  0  0  0
 17 19  1  0  0  0  0
 18 19  1  0  0  0  0
 14  9  1  1  0  0  0
 15 20  1  6  0  0  0
 17 21  1  1  0  0  0
 19 22  1  1  0  0  0
 18 23  1  1  0  0  0
 24 23  1  0  0  0  0
 25 26  1  0  0  0  0
 25 27  1  0  0  0  0
 26 28  1  0  0  0  0
 27 29  1  0  0  0  0
 28 30  1  0  0  0  0
 29 30  1  0  0  0  0
 25 21  1  6  0  0  0
 26 31  1  6  0  0  0
 28 32  1  1  0  0  0
 30 33  1  1  0  0  0
 29 34  1  1  0  0  0
 35 34  1  0  0  0  0
  5 36  1  1  0  0  0
M  END
> <ID>
CHEBI:63118

> <NAME>
alpha-D-Gal-(1->3)-beta-D-Gal-(1->4)-6-deoxy-D-GlcNAc

> <DEFINITION>
A three-membered deoxy oligosaccharide which has a 6-deoxy-N-acetyl-D-glucosamine unit at the reducing end with an α-D-galactosyl-(1→3)-β-D-galactosyl group attached at the 4-position.

> <STAR>
3

> <SYNONYM>
Galalpha1-3Galbeta1-4[6-deoxy]GlcNAc; alpha-D-Galp-(1->3)-beta-D-Galp-(1->4)-6-deoxy-D-GlcNAc; alpha-D-galactosyl-(1->3)-beta-D-galactosyl-(1->4)-6-deoxy-N-acetyl-D-glucosamine

> <IUPAC_NAME>
alpha-D-galactopyranosyl-(1->3)-beta-D-galactopyranosyl-(1->4)-2-acetamido-2,6-dideoxy-D-glucopyranose

> <FORMULA>
C20H35NO15

> <MASS>
529.48960

> <MONOISOTOPIC_MASS>
529.20067

> <CHARGE>
0

> <SMILES>
C[C@H]1OC(O)[C@H](NC(C)=O)[C@@H](O)[C@@H]1O[C@@H]1O[C@H](CO)[C@H](O)[C@H](O[C@H]2O[C@H](CO)[C@H](O)[C@H](O)[C@H]2O)[C@H]1O

> <INCHI>
InChI=1S/C20H35NO15/c1-5-16(12(27)9(18(31)32-5)21-6(2)24)35-20-15(30)17(11(26)8(4-23)34-20)36-19-14(29)13(28)10(25)7(3-22)33-19/h5,7-20,22-23,25-31H,3-4H2,1-2H3,(H,21,24)/t5-,7-,8-,9-,10+,11+,12-,13+,14-,15-,16-,17+,18?,19-,20+/m1/s1

> <INCHIKEY>
PMXUHEKEZRFSJU-LAAUGDPGSA-N

> <PUBMED_CITATION>
9753344

$$$$

Marvin  10281115292D          

 25 24  0  0  1  0            999 V2000
   19.7087   -5.9016    0.0000 O   0  0  0  0  0  0  0  0  0  0  0  0
   18.2776   -5.0802    0.0000 N   0  0  0  0  0  0  0  0  0  0  0  0
   20.4197   -4.6622    0.0000 O   0  0  0  0  0  0  0  0  0  0  0  0
   18.9907   -4.6659    0.0000 C   0  0  1  0  0  0  0  0  0  0  0  0
   19.7064   -5.0765    0.0000 C   0  0  0  0  0  0  0  0  0  0  0  0
   18.9886   -3.8410    0.0000 C   0  0  0  0  0  0  0  0  0  0  0  0
   17.5599   -3.8449    0.0000 O   0  0  0  0  0  0  0  0  0  0  0  0
   16.1331   -4.6736    0.0000 N   0  0  0  0  0  0  0  0  0  0  0  0
   16.8486   -5.0842    0.0000 C   0  0  1  0  0  0  0  0  0  0  0  0
   17.5619   -4.6405    0.0000 C   0  0  0  0  0  0  0  0  0  0  0  0
   16.8508   -5.9091    0.0000 C   0  0  0  0  0  0  0  0  0  0  0  0
   15.4221   -5.9129    0.0000 O   0  0  0  0  0  0  0  0  0  0  0  0
   14.7042   -4.6774    0.0000 C   0  0  1  0  0  0  0  0  0  0  0  0
   15.4199   -5.0881    0.0000 C   0  0  0  0  0  0  0  0  0  0  0  0
   13.9910   -5.0918    0.0000 N   0  0  0  0  0  0  0  0  0  0  0  0
   13.2732   -3.8563    0.0000 O   0  0  0  0  0  0  0  0  0  0  0  0
   11.8464   -4.6851    0.0000 N   0  0  0  0  0  0  0  0  0  0  0  0
   12.5619   -5.0956    0.0000 C   0  0  2  0  0  0  0  0  0  0  0  0
   13.2755   -4.6811    0.0000 C   0  0  0  0  0  0  0  0  0  0  0  0
   12.5642   -5.9207    0.0000 C   0  0  0  0  0  0  0  0  0  0  0  0
   10.4174   -4.6890    0.0000 C   0  0  0  0  0  0  0  0  0  0  0  0
   11.1331   -5.0995    0.0000 C   0  0  0  0  0  0  0  0  0  0  0  0
   11.1354   -5.9245    0.0000 O   0  0  0  0  0  0  0  0  0  0  0  0
    9.7041   -5.1035    0.0000 N   0  0  0  0  0  0  0  0  0  0  0  0
   14.7020   -3.8524    0.0000 C   0  0  0  0  0  0  0  0  0  0  0  0
  1  5  2  0  0  0  0
  4  2  1  0  0  0  0
  5  3  1  0  0  0  0
  5  4  1  0  0  0  0
  4  6  1  6  0  0  0
  7 10  2  0  0  0  0
  9  8  1  0  0  0  0
 10  2  1  0  0  0  0
 10  9  1  0  0  0  0
  9 11  1  1  0  0  0
 12 14  2  0  0  0  0
 13 15  1  0  0  0  0
 14  8  1  0  0  0  0
 14 13  1  0  0  0  0
 16 19  2  0  0  0  0
 18 17  1  0  0  0  0
 19 15  1  0  0  0  0
 19 18  1  0  0  0  0
 18 20  1  6  0  0  0
 21 22  1  0  0  0  0
 22 23  2  0  0  0  0
 22 17  1  0  0  0  0
 21 24  1  0  0  0  0
 13 25  1  1  0  0  0
M  END
> <ID>
CHEBI:63134

> <NAME>
Gly-L-Ala-L-Ala-D-Ala-D-Ala

> <DEFINITION>
A pentapeptide that consists of one glycyl, two L-alanyl and two D-alanyl residues coupled in sequence.

> <STAR>
3

> <SYNONYM>
GAAaa

> <IUPAC_NAME>
glycyl-L-alanyl-L-alanyl-D-alanyl-D-alanine

> <FORMULA>
C14H25N5O6

> <MASS>
359.37820

> <MONOISOTOPIC_MASS>
359.18048

> <CHARGE>
0

> <SMILES>
C[C@@H](NC(=O)[C@@H](C)NC(=O)[C@H](C)NC(=O)[C@H](C)NC(=O)CN)C(O)=O

> <INCHI>
InChI=1S/C14H25N5O6/c1-6(16-10(20)5-15)11(21)17-7(2)12(22)18-8(3)13(23)19-9(4)14(24)25/h6-9H,5,15H2,1-4H3,(H,16,20)(H,17,21)(H,18,22)(H,19,23)(H,24,25)/t6-,7-,8+,9+/m0/s1

> <INCHIKEY>
KFAHJBXSCMRXIA-RBXMUDONSA-N

> <PUBMED_CITATION>
3929745

$$$$

Marvin  10311115422D          

 10 10  0  0  1  0            999 V2000
   10.1318   -9.2344    0.0000 C   0  0  0  0  0  0  0  0  0  0  0  0
   10.1318  -10.0594    0.0000 C   0  0  0  0  0  0  0  0  0  0  0  0
    9.4174   -8.8219    0.0000 O   0  0  0  0  0  0  0  0  0  0  0  0
    9.4174  -10.4718    0.0000 C   0  0  2  0  0  0  0  0  0  0  0  0
    8.7030   -9.2344    0.0000 C   0  0  1  0  0  0  0  0  0  0  0  0
    8.7030  -10.0594    0.0000 C   0  0  2  0  0  0  0  0  0  0  0  0
    9.4174  -11.2967    0.0000 O   0  0  0  0  0  0  0  0  0  0  0  0
    7.9886  -10.4718    0.0000 O   0  0  0  0  0  0  0  0  0  0  0  0
    7.9886   -8.8219    0.0000 C   0  0  0  0  0  0  0  0  0  0  0  0
    7.2741   -9.2344    0.0000 O   0  0  0  0  0  0  0  0  0  0  0  0
  1  2  2  0  0  0  0
  1  3  1  0  0  0  0
  2  4  1  0  0  0  0
  3  5  1  0  0  0  0
  4  6  1  0  0  0  0
  5  6  1  0  0  0  0
  4  7  1  1  0  0  0
  6  8  1  1  0  0  0
  5  9  1  1  0  0  0
 10  9  1  0  0  0  0
M  END
> <ID>
CHEBI:63139

> <NAME>
D-galactal

> <DEFINITION>
A glycal derived from D-galactopyranose

> <STAR>
3

> <SYNONYM>
galactal; d-Galactal; D-(+)-galactal

> <IUPAC_NAME>
2,6-anhydro-5-deoxy-D-arabino-hex-5-enitol

> <FORMULA>
C6H10O4

> <MASS>
146.14120

> <MONOISOTOPIC_MASS>
146.05791

> <CHARGE>
0

> <SMILES>
OC[C@H]1OC=C[C@@H](O)[C@H]1O

> <INCHI>
InChI=1S/C6H10O4/c7-3-5-6(9)4(8)1-2-10-5/h1-2,4-9H,3H2/t4-,5-,6-/m1/s1

> <INCHIKEY>
YVECGMZCTULTIS-HSUXUTPPSA-N

> <CAS_REGISTRY_NUMBER>
29485-85-6

> <REAXYS_REGISTRY_NUMBER>
81690

> <CHEMIDPLUS>
29485-85-6

> <METACYC_ACCESSION>
CPD0-1300

> <PUBMED_CITATION>
8154046

$$$$

Marvin  10311116262D          

 34 36  0  0  1  0            999 V2000
    8.9595   -6.0587    0.0000 C   0  0  1  0  0  0  0  0  0  0  0  0
    8.9595   -6.8836    0.0000 C   0  0  1  0  0  0  0  0  0  0  0  0
    8.2449   -5.6462    0.0000 O   0  0  0  0  0  0  0  0  0  0  0  0
    8.2449   -7.2961    0.0000 C   0  0  2  0  0  0  0  0  0  0  0  0
    7.5306   -6.0587    0.0000 C   0  0  1  0  0  0  0  0  0  0  0  0
    7.5306   -6.8836    0.0000 C   0  0  2  0  0  0  0  0  0  0  0  0
    9.6739   -7.2961    0.0000 O   0  0  0  0  0  0  0  0  0  0  0  0
    8.2449   -8.1211    0.0000 O   0  0  0  0  0  0  0  0  0  0  0  0
    6.8161   -7.2961    0.0000 O   0  0  0  0  0  0  0  0  0  0  0  0
    6.8161   -5.6462    0.0000 C   0  0  0  0  0  0  0  0  0  0  0  0
    6.1017   -6.0587    0.0000 O   0  0  0  0  0  0  0  0  0  0  0  0
    9.6739   -5.6462    0.0000 O   0  0  0  0  0  0  0  0  0  0  0  0
   14.6752   -2.7587    0.0000 C   0  0  0  0  0  0  0  0  0  0  0  0
   14.6752   -3.5837    0.0000 C   0  0  1  0  0  0  0  0  0  0  0  0
   13.9607   -2.3462    0.0000 O   0  0  0  0  0  0  0  0  0  0  0  0
   13.9607   -3.9962    0.0000 C   0  0  2  0  0  0  0  0  0  0  0  0
   13.2463   -2.7587    0.0000 C   0  0  1  0  0  0  0  0  0  0  0  0
   13.2463   -3.5837    0.0000 C   0  0  1  0  0  0  0  0  0  0  0  0
   15.3897   -2.3462    0.0000 O   0  0  0  0  0  0  0  0  0  0  0  0
   15.3897   -3.9962    0.0000 O   0  0  0  0  0  0  0  0  0  0  0  0
   13.9607   -4.8211    0.0000 O   0  0  0  0  0  0  0  0  0  0  0  0
   12.5317   -3.9962    0.0000 O   0  0  0  0  0  0  0  0  0  0  0  0
   12.5317   -2.3462    0.0000 C   0  0  0  0  0  0  0  0  0  0  0  0
   11.8174   -2.7587    0.0000 O   0  0  0  0  0  0  0  0  0  0  0  0
   11.8174   -4.4087    0.0000 C   0  0  1  0  0  0  0  0  0  0  0  0
   11.8174   -5.2336    0.0000 C   0  0  1  0  0  0  0  0  0  0  0  0
   11.1029   -3.9962    0.0000 O   0  0  0  0  0  0  0  0  0  0  0  0
   11.1029   -5.6462    0.0000 C   0  0  2  0  0  0  0  0  0  0  0  0
   10.3885   -4.4087    0.0000 C   0  0  1  0  0  0  0  0  0  0  0  0
   10.3885   -5.2336    0.0000 C   0  0  2  0  0  0  0  0  0  0  0  0
   12.5317   -5.6462    0.0000 O   0  0  0  0  0  0  0  0  0  0  0  0
   11.1029   -6.4712    0.0000 O   0  0  0  0  0  0  0  0  0  0  0  0
    9.6739   -3.9962    0.0000 C   0  0  0  0  0  0  0  0  0  0  0  0
    8.9595   -4.4087    0.0000 O   0  0  0  0  0  0  0  0  0  0  0  0
  1  2  1  0  0  0  0
  1  3  1  0  0  0  0
  2  4  1  0  0  0  0
  3  5  1  0  0  0  0
  4  6  1  0  0  0  0
  5  6  1  0  0  0  0
  2  7  1  6  0  0  0
  4  8  1  1  0  0  0
  6  9  1  1  0  0  0
  5 10  1  1  0  0  0
 11 10  1  0  0  0  0
  1 12  1  1  0  0  0
 13 14  1  0  0  0  0
 13 15  1  0  0  0  0
 14 16  1  0  0  0  0
 15 17  1  0  0  0  0
 16 18  1  0  0  0  0
 17 18  1  0  0  0  0
 13 19  1  0  0  0  0
 14 20  1  6  0  0  0
 16 21  1  1  0  0  0
 18 22  1  6  0  0  0
 17 23  1  1  0  0  0
 24 23  1  0  0  0  0
 25 26  1  0  0  0  0
 25 27  1  0  0  0  0
 26 28  1  0  0  0  0
 27 29  1  0  0  0  0
 28 30  1  0  0  0  0
 29 30  1  0  0  0  0
 25 22  1  1  0  0  0
 26 31  1  6  0  0  0
 28 32  1  1  0  0  0
 30 12  1  1  0  0  0
 29 33  1  1  0  0  0
 34 33  1  0  0  0  0
M  END
> <ID>
CHEBI:63141

> <NAME>
beta-D-Galp-(1->4)-beta-D-Galp-(1->4)-D-Glcp

> <DEFINITION>
A linear trisaccharide comprising D-glucose (at the reducing end) having a β-D-galactosyl-(1→4)-β-D-galactosyl moiety at the 4-position.

> <STAR>
3

> <SYNONYM>
Galbeta1-4Galbeta1-4Glc; Galbeta1,4Galbeta1,4Glc; beta-Gal-(1->4)-beta-Gal-(1->4)-Glc; beta-D-galactosyl-(1->4)-beta-D-galactosyl-(1->4)-D-glucose; beta-D-Gal-(1->4)-beta-D-Gal-(1->4)-D-Glc; 4-O-(4-O-beta-D-galactosyl-beta-D-galactosyl)-D-glucose; 4-O-(4-O-beta-D-galactopyranosyl-beta-D-galactopyranosyl)-D-glucopyranose; 4'-O-beta-D-galactosyl-D-lactose; (Gal)2 (Glc)1

> <IUPAC_NAME>
beta-D-galactopyranosyl-(1->4)-beta-D-galactopyranosyl-(1->4)-D-glucopyranose

> <FORMULA>
C18H32O16

> <MASS>
504.43710

> <MONOISOTOPIC_MASS>
504.16903

> <CHARGE>
0

> <SMILES>
OC[C@H]1O[C@@H](O[C@H]2[C@@H](CO)O[C@@H](O[C@@H]3[C@@H](CO)OC(O)[C@H](O)[C@H]3O)[C@H](O)[C@H]2O)[C@H](O)[C@@H](O)[C@H]1O

> <INCHI>
InChI=1S/C18H32O16/c19-1-4-7(22)8(23)12(27)17(31-4)34-15-6(3-21)32-18(13(28)10(15)25)33-14-5(2-20)30-16(29)11(26)9(14)24/h4-29H,1-3H2/t4-,5-,6-,7+,8+,9-,10-,11-,12-,13-,14-,15+,16?,17+,18+/m1/s1

> <INCHIKEY>
FYGDTMLNYKFZSV-YXENHOCSSA-N

> <REAXYS_REGISTRY_NUMBER>
1358947

> <KEGG_GLYCAN_ACCESSION>
G00359

> <PUBMED_CITATION>
16442513; 8154046

$$$$

Marvin  11011110052D          

 27 27  0  0  1  0            999 V2000
   11.6874   -4.4729    0.0000 C   0  0  2  0  0  0  0  0  0  0  0  0
   11.6874   -5.2979    0.0000 C   0  0  1  0  0  0  0  0  0  0  0  0
   10.9729   -4.0604    0.0000 O   0  0  0  0  0  0  0  0  0  0  0  0
   10.9729   -5.7104    0.0000 C   0  0  2  0  0  0  0  0  0  0  0  0
   10.2584   -4.4729    0.0000 C   0  0  1  0  0  0  0  0  0  0  0  0
   10.2584   -5.2979    0.0000 C   0  0  2  0  0  0  0  0  0  0  0  0
   12.4019   -4.0604    0.0000 O   0  0  0  0  0  0  0  0  0  0  0  0
   12.4019   -5.7104    0.0000 O   0  0  0  0  0  0  0  0  0  0  0  0
   10.9729   -6.5354    0.0000 O   0  0  0  0  0  0  0  0  0  0  0  0
    9.5439   -5.7104    0.0000 O   0  0  0  0  0  0  0  0  0  0  0  0
    9.5439   -4.0604    0.0000 C   0  0  0  0  0  0  0  0  0  0  0  0
    9.5439   -3.2354    0.0000 O   0  0  0  0  0  0  0  0  0  0  0  0
    8.8295   -2.8229    0.0000 C   0  0  0  0  0  0  0  0  0  0  0  0
    8.8295   -1.9979    0.0000 O   0  0  0  0  0  0  0  0  0  0  0  0
    8.1150   -3.2354    0.0000 C   0  0  0  0  0  0  0  0  0  0  0  0
    8.8295   -5.2979    0.0000 C   0  0  0  0  0  0  0  0  0  0  0  0
    8.8295   -4.4729    0.0000 O   0  0  0  0  0  0  0  0  0  0  0  0
    8.1150   -5.7104    0.0000 C   0  0  0  0  0  0  0  0  0  0  0  0
   10.2583   -6.9479    0.0000 C   0  0  0  0  0  0  0  0  0  0  0  0
   10.2583   -7.7729    0.0000 O   0  0  0  0  0  0  0  0  0  0  0  0
    9.5439   -6.5354    0.0000 C   0  0  0  0  0  0  0  0  0  0  0  0
   12.4019   -6.5354    0.0000 C   0  0  0  0  0  0  0  0  0  0  0  0
   13.1163   -6.9479    0.0000 O   0  0  0  0  0  0  0  0  0  0  0  0
   11.6873   -6.9479    0.0000 C   0  0  0  0  0  0  0  0  0  0  0  0
   13.1163   -4.4729    0.0000 C   0  0  0  0  0  0  0  0  0  0  0  0
   13.1163   -5.2979    0.0000 O   0  0  0  0  0  0  0  0  0  0  0  0
   13.8308   -4.0604    0.0000 C   0  0  0  0  0  0  0  0  0  0  0  0
  1  2  1  0  0  0  0
  1  3  1  0  0  0  0
  2  4  1  0  0  0  0
  3  5  1  0  0  0  0
  4  6  1  0  0  0  0
  5  6  1  0  0  0  0
  1  7  1  6  0  0  0
  2  8  1  6  0  0  0
  4  9  1  1  0  0  0
  6 10  1  1  0  0  0
  5 11  1  1  0  0  0
 11 12  1  0  0  0  0
 14 13  2  0  0  0  0
 15 13  1  0  0  0  0
 12 13  1  0  0  0  0
 17 16  2  0  0  0  0
 18 16  1  0  0  0  0
 10 16  1  0  0  0  0
 20 19  2  0  0  0  0
 21 19  1  0  0  0  0
  9 19  1  0  0  0  0
 23 22  2  0  0  0  0
 24 22  1  0  0  0  0
  8 22  1  0  0  0  0
 26 25  2  0  0  0  0
 27 25  1  0  0  0  0
  7 25  1  0  0  0  0
M  END
> <ID>
CHEBI:63145

> <NAME>
penta-O-acetyl-alpha-D-galactose

> <DEFINITION>
An O-acyl carbohydrate that consists of α-D-galactopyranose bearing five O-acetyl substituents.

> <STAR>
3

> <SYNONYM>
pentaacetyl-alpha-D-galactose; alpha-D-galactose pentaacetate; alpha-D-galactose penta-acetate; alpha-D-galactose 1,2,3,4,6-pentaacetate; 1,2,3,4,6-pentaacetyl-alpha-D-galactose; 1,2,3,4,6-penta-O-acetyl-alpha-D-galactose

> <IUPAC_NAME>
1,2,3,4,6-penta-O-acetyl-alpha-D-galactopyranose

> <FORMULA>
C16H22O11

> <MASS>
390.33930

> <MONOISOTOPIC_MASS>
390.11621

> <CHARGE>
0

> <SMILES>
CC(=O)OC[C@H]1O[C@H](OC(C)=O)[C@H](OC(C)=O)[C@@H](OC(C)=O)[C@H]1OC(C)=O

> <INCHI>
InChI=1S/C16H22O11/c1-7(17)22-6-12-13(23-8(2)18)14(24-9(3)19)15(25-10(4)20)16(27-12)26-11(5)21/h12-16H,6H2,1-5H3/t12-,13+,14+,15-,16+/m1/s1

> <INCHIKEY>
LPTITAGPBXDDGR-CWVYHPPDSA-N

> <REAXYS_REGISTRY_NUMBER>
98854

> <PUBMED_CITATION>
10075107; 18433739; 18440500; 20196587; 8154046; 9523357; 9855706

$$$$

Marvin  11011115332D          

 15 15  0  0  1  0            999 V2000
   11.6179   -5.5067    0.0000 C   0  0  1  0  0  0  0  0  0  0  0  0
   11.6179   -6.3317    0.0000 C   0  0  2  0  0  0  0  0  0  0  0  0
   10.9034   -5.0942    0.0000 O   0  0  0  0  0  0  0  0  0  0  0  0
   10.9034   -6.7442    0.0000 C   0  0  2  0  0  0  0  0  0  0  0  0
   10.1889   -5.5067    0.0000 C   0  0  1  0  0  0  0  0  0  0  0  0
   10.1889   -6.3317    0.0000 C   0  0  1  0  0  0  0  0  0  0  0  0
   12.3324   -5.0941    0.0000 O   0  0  0  0  0  0  0  0  0  0  0  0
   12.3324   -6.7442    0.0000 N   0  0  0  0  0  0  0  0  0  0  0  0
   10.9034   -7.5692    0.0000 O   0  0  0  0  0  0  0  0  0  0  0  0
    9.4744   -6.7442    0.0000 O   0  0  0  0  0  0  0  0  0  0  0  0
    9.4744   -5.0942    0.0000 C   0  0  0  0  0  0  0  0  0  0  0  0
    8.7600   -5.5067    0.0000 O   0  0  0  0  0  0  0  0  0  0  0  0
   12.3324   -7.5692    0.0000 C   0  0  0  0  0  0  0  0  0  0  0  0
   13.0468   -7.9817    0.0000 O   0  0  0  0  0  0  0  0  0  0  0  0
   11.6179   -7.9817    0.0000 C   0  0  0  0  0  0  0  0  0  0  0  0
  1  2  1  0  0  0  0
  1  3  1  0  0  0  0
  2  4  1  0  0  0  0
  3  5  1  0  0  0  0
  4  6  1  0  0  0  0
  5  6  1  0  0  0  0
  1  7  1  1  0  0  0
  2  8  1  1  0  0  0
  4  9  1  1  0  0  0
  6 10  1  6  0  0  0
  5 11  1  1  0  0  0
 12 11  1  0  0  0  0
 14 13  2  0  0  0  0
 15 13  1  0  0  0  0
  8 13  1  0  0  0  0
M  END
> <ID>
CHEBI:63154

> <NAME>
N-acetyl-beta-D-mannosamine

> <DEFINITION>
An N-acetyl-D-mannosamine having β-configuration at its anomeric centre.

> <STAR>
3

> <SYNONYM>
N-acetyl-beta-mannosamine; beta-ManNAc

> <IUPAC_NAME>
2-acetamido-2-deoxy-beta-D-mannopyranose

> <FORMULA>
C8H15NO6

> <MASS>
221.20780

> <MONOISOTOPIC_MASS>
221.08994

> <CHARGE>
0

> <SMILES>
CC(=O)N[C@@H]1[C@H](O)O[C@H](CO)[C@@H](O)[C@@H]1O

> <INCHI>
InChI=1S/C8H15NO6/c1-3(11)9-5-7(13)6(12)4(2-10)15-8(5)14/h4-8,10,12-14H,2H2,1H3,(H,9,11)/t4-,5+,6-,7-,8-/m1/s1

> <INCHIKEY>
OVRNDRQMDRJTHS-OZRXBMAMSA-N

> <REAXYS_REGISTRY_NUMBER>
1346524

> <METACYC_ACCESSION>
N-ACETYL-D-MANNOSAMINE

> <WIKIPEDIA_ACCESSION>
N-acetylmannosamine

> <PUBMED_CITATION>
15280054; 15936003; 8154046

$$$$

Marvin  11151114442D          

 24 24  0  0  1  0            999 V2000
   20.8921   -4.8718    0.0000 C   0  0  0  0  0  0  0  0  0  0  0  0
   20.1776   -4.4593    0.0000 C   0  0  0  0  0  0  0  0  0  0  0  0
   20.8921   -5.6967    0.0000 O   0  0  0  0  0  0  0  0  0  0  0  0
   19.4632   -4.8718    0.0000 C   0  0  0  0  0  0  0  0  0  0  0  0
   18.7488   -4.4593    0.0000 C   0  0  0  0  0  0  0  0  0  0  0  0
   18.0343   -4.8716    0.0000 C   0  0  0  0  0  0  0  0  0  0  0  0
   17.3198   -4.4591    0.0000 C   0  0  0  0  0  0  0  0  0  0  0  0
   16.6054   -4.8716    0.0000 C   0  0  0  0  0  0  0  0  0  0  0  0
   15.8909   -4.4593    0.0000 C   0  0  0  0  0  0  0  0  0  0  0  0
   21.6065   -4.4593    0.0000 O   0  0  0  0  0  0  0  0  0  0  0  0
   15.1765   -4.8718    0.0000 C   0  0  0  0  0  0  0  0  0  0  0  0
   14.4620   -4.4593    0.0000 O   0  0  0  0  0  0  0  0  0  0  0  0
   22.3210   -4.8717    0.0000 C   0  0  0  0  0  0  0  0  0  0  0  0
   13.0331   -6.1093    0.0000 C   0  0  1  0  0  0  0  0  0  0  0  0
   13.0331   -6.9343    0.0000 O   0  0  0  0  0  0  0  0  0  0  0  0
   12.3186   -5.6968    0.0000 C   0  0  1  0  0  0  0  0  0  0  0  0
   11.6043   -6.1093    0.0000 O   0  0  0  0  0  0  0  0  0  0  0  0
   12.3186   -4.8718    0.0000 C   0  0  2  0  0  0  0  0  0  0  0  0
   13.7476   -4.8718    0.0000 C   0  0  1  0  0  0  0  0  0  0  0  0
   14.4620   -6.1093    0.0000 O   0  0  0  0  0  0  0  0  0  0  0  0
   13.0331   -4.4593    0.0000 O   0  0  0  0  0  0  0  0  0  0  0  0
   13.7476   -5.6968    0.0000 C   0  0  2  0  0  0  0  0  0  0  0  0
   11.6043   -4.4593    0.0000 C   0  0  0  0  0  0  0  0  0  0  0  0
   10.8898   -4.8718    0.0000 O   0  0  0  0  0  0  0  0  0  0  0  0
  1  2  1  0  0  0  0
  1  3  2  0  0  0  0
  2  4  1  0  0  0  0
  4  5  1  0  0  0  0
  5  6  1  0  0  0  0
  6  7  1  0  0  0  0
  7  8  1  0  0  0  0
  8  9  1  0  0  0  0
  1 10  1  0  0  0  0
  9 11  1  0  0  0  0
 11 12  1  0  0  0  0
 10 13  1  0  0  0  0
 18 16  1  0  0  0  0
 18 21  1  0  0  0  0
 16 14  1  0  0  0  0
 21 19  1  0  0  0  0
 14 22  1  0  0  0  0
 19 22  1  0  0  0  0
 14 15  1  1  0  0  0
 16 17  1  1  0  0  0
 18 23  1  1  0  0  0
 19 12  1  6  0  0  0
 22 20  1  6  0  0  0
 23 24  1  0  0  0  0
M  END
> <ID>
CHEBI:63176

> <NAME>
methyl 9-(alpha-D-galactosyloxy)nonanoate

> <DEFINITION>
A carboxylic ester obtained by formal condensation of 9-(α-D-galactosyloxy)nonanoic acid and methanol.

> <STAR>
3

> <SYNONYM>
9-(methoxycarbonyl)nonyl alpha-D-galactoside

> <IUPAC_NAME>
methyl 9-(alpha-D-galactopyranosyloxy)nonanoate

> <FORMULA>
C16H30O8

> <MASS>
350.40460

> <MONOISOTOPIC_MASS>
350.19407

> <CHARGE>
0

> <SMILES>
COC(=O)CCCCCCCCO[C@H]1O[C@H](CO)[C@H](O)[C@H](O)[C@H]1O

> <INCHI>
InChI=1S/C16H30O8/c1-22-12(18)8-6-4-2-3-5-7-9-23-16-15(21)14(20)13(19)11(10-17)24-16/h11,13-17,19-21H,2-10H2,1H3/t11-,13+,14+,15-,16+/m1/s1

> <INCHIKEY>
ZJZBQHWSENWEMY-CHUNWDLHSA-N

> <REAXYS_REGISTRY_NUMBER>
5761129

> <PUBMED_CITATION>
8154046

$$$$

Marvin  11211116122D          

 37 39  0  0  1  0            999 V2000
   12.0295   -4.4061    0.0000 C   0  0  1  0  0  0  0  0  0  0  0  0
   12.0295   -5.2312    0.0000 C   0  0  1  0  0  0  0  0  0  0  0  0
   11.3150   -3.9937    0.0000 O   0  0  0  0  0  0  0  0  0  0  0  0
   11.3150   -5.6436    0.0000 C   0  0  2  0  0  0  0  0  0  0  0  0
   10.6005   -4.4061    0.0000 C   0  0  1  0  0  0  0  0  0  0  0  0
   10.6005   -5.2312    0.0000 C   0  0  2  0  0  0  0  0  0  0  0  0
   12.7439   -3.9937    0.0000 O   0  0  0  0  0  0  0  0  0  0  0  0
   12.7439   -5.6436    0.0000 O   0  0  0  0  0  0  0  0  0  0  0  0
   11.3150   -6.4686    0.0000 O   0  0  0  0  0  0  0  0  0  0  0  0
    9.8860   -5.6436    0.0000 O   0  0  0  0  0  0  0  0  0  0  0  0
    9.8860   -3.9937    0.0000 C   0  0  0  0  0  0  0  0  0  0  0  0
    9.1717   -4.4061    0.0000 O   0  0  0  0  0  0  0  0  0  0  0  0
   10.6006   -6.8811    0.0000 C   0  0  2  0  0  0  0  0  0  0  0  0
   10.6006   -7.7061    0.0000 C   0  0  1  0  0  0  0  0  0  0  0  0
    9.8860   -6.4687    0.0000 O   0  0  0  0  0  0  0  0  0  0  0  0
    9.8861   -8.1185    0.0000 C   0  0  2  0  0  0  0  0  0  0  0  0
    9.1714   -6.8813    0.0000 C   0  0  1  0  0  0  0  0  0  0  0  0
    9.1717   -7.7061    0.0000 C   0  0  2  0  0  0  0  0  0  0  0  0
   11.3151   -8.1185    0.0000 N   0  0  0  0  0  0  0  0  0  0  0  0
    9.8859   -8.9435    0.0000 O   0  0  0  0  0  0  0  0  0  0  0  0
    8.4571   -8.1185    0.0000 O   0  0  0  0  0  0  0  0  0  0  0  0
    8.4571   -6.4688    0.0000 C   0  0  0  0  0  0  0  0  0  0  0  0
    7.7426   -6.8812    0.0000 O   0  0  0  0  0  0  0  0  0  0  0  0
   11.3151   -8.9434    0.0000 C   0  0  0  0  0  0  0  0  0  0  0  0
   12.0295   -9.3559    0.0000 O   0  0  0  0  0  0  0  0  0  0  0  0
   10.6006   -9.3561    0.0000 C   0  0  0  0  0  0  0  0  0  0  0  0
   14.8875   -2.7561    0.0000 C   0  0  0  0  0  0  0  0  0  0  0  0
   14.8875   -3.5812    0.0000 C   0  0  1  0  0  0  0  0  0  0  0  0
   14.1730   -2.3436    0.0000 O   0  0  0  0  0  0  0  0  0  0  0  0
   14.1730   -3.9937    0.0000 C   0  0  2  0  0  0  0  0  0  0  0  0
   13.4584   -2.7561    0.0000 C   0  0  1  0  0  0  0  0  0  0  0  0
   13.4584   -3.5812    0.0000 C   0  0  1  0  0  0  0  0  0  0  0  0
   15.6020   -2.3436    0.0000 O   0  0  0  0  0  0  0  0  0  0  0  0
   15.6020   -3.9937    0.0000 O   0  0  0  0  0  0  0  0  0  0  0  0
   14.1730   -4.8187    0.0000 O   0  0  0  0  0  0  0  0  0  0  0  0
   12.7439   -2.3436    0.0000 C   0  0  0  0  0  0  0  0  0  0  0  0
   12.0295   -2.7561    0.0000 O   0  0  0  0  0  0  0  0  0  0  0  0
  1  2  1  0  0  0  0
  1  3  1  0  0  0  0
  2  4  1  0  0  0  0
  3  5  1  0  0  0  0
  4  6  1  0  0  0  0
  5  6  1  0  0  0  0
  1  7  1  1  0  0  0
  2  8  1  6  0  0  0
  4  9  1  1  0  0  0
  6 10  1  1  0  0  0
  5 11  1  1  0  0  0
 12 11  1  0  0  0  0
 13 14  1  0  0  0  0
 13 15  1  0  0  0  0
 14 16  1  0  0  0  0
 15 17  1  0  0  0  0
 16 18  1  0  0  0  0
 17 18  1  0  0  0  0
 14 19  1  6  0  0  0
 16 20  1  1  0  0  0
 18 21  1  1  0  0  0
 17 22  1  1  0  0  0
 23 22  1  0  0  0  0
 25 24  2  0  0  0  0
 26 24  1  0  0  0  0
 19 24  1  0  0  0  0
 13  9  1  6  0  0  0
 27 28  1  0  0  0  0
 27 29  1  0  0  0  0
 28 30  1  0  0  0  0
 29 31  1  0  0  0  0
 30 32  1  0  0  0  0
 31 32  1  0  0  0  0
 27 33  1  0  0  0  0
 28 34  1  6  0  0  0
 30 35  1  1  0  0  0
 32  7  1  6  0  0  0
 31 36  1  1  0  0  0
 37 36  1  0  0  0  0
M  END
> <ID>
CHEBI:63228

> <NAME>
alpha-D-GalpNAc-(1->3)-beta-D-Galp-(1->4)-D-Glcp

> <DEFINITION>
A linear amino trisaccharide consisting of D-glucose at the reducing end having an N-acetyl-α-D-galactosaminyl-(1→3)-β-D-galactosyl moiety attached at the 4-position.

> <STAR>
3

> <SYNONYM>
N-acetyl-alpha-D-galactosaminyl-(1->3)-beta-D-galactosyl-(1->4)-D-glucose; GalNAcalpha1->3Galbeta1->4Glc; alphaGalNAc(1->3)betaGal(1->4)Glc; alpha-D-GalNAc-(1->3)-beta-D-Gal-(1->4)-D-Glc; (Gal)1 (GalNAc)1 (Glc)1

> <IUPAC_NAME>
2-acetamido-2-deoxy-alpha-D-galactopyranosyl-(1->3)-beta-D-galactopyranosyl-(1->4)-D-glucopyranose

> <FORMULA>
C20H35NO16

> <MASS>
545.48900

> <MONOISOTOPIC_MASS>
545.19558

> <CHARGE>
0

> <SMILES>
CC(=O)N[C@@H]1[C@@H](O)[C@@H](O)[C@@H](CO)O[C@@H]1O[C@H]1[C@@H](O)[C@@H](CO)O[C@@H](O[C@H]2[C@H](O)[C@@H](O)C(O)O[C@@H]2CO)[C@@H]1O

> <INCHI>
InChI=1S/C20H35NO16/c1-5(25)21-9-12(28)10(26)6(2-22)34-19(9)37-17-11(27)7(3-23)35-20(15(17)31)36-16-8(4-24)33-18(32)14(30)13(16)29/h6-20,22-24,26-32H,2-4H2,1H3,(H,21,25)/t6-,7-,8-,9-,10+,11+,12-,13-,14-,15-,16-,17+,18?,19-,20+/m1/s1

> <INCHIKEY>
CRTJRHPGCOAOQC-NQRHUIQXSA-N

> <REAXYS_REGISTRY_NUMBER>
15561577

> <KEGG_GLYCAN_ACCESSION>
G01077

> <PUBMED_CITATION>
15864747

$$$$

Marvin  11221110192D          

 30 31  0  0  1  0            999 V2000
   12.7992   -3.5137    0.0000 C   0  0  2  0  0  0  0  0  0  0  0  0
   12.7992   -4.3386    0.0000 C   0  0  1  0  0  0  0  0  0  0  0  0
   12.0847   -3.1011    0.0000 O   0  0  0  0  0  0  0  0  0  0  0  0
   12.0847   -4.7511    0.0000 C   0  0  2  0  0  0  0  0  0  0  0  0
   11.3701   -3.5137    0.0000 C   0  0  1  0  0  0  0  0  0  0  0  0
   11.3701   -4.3386    0.0000 C   0  0  2  0  0  0  0  0  0  0  0  0
   13.5136   -3.1011    0.0000 O   0  0  0  0  0  0  0  0  0  0  0  0
   13.5136   -4.7511    0.0000 N   0  0  0  0  0  0  0  0  0  0  0  0
   12.0847   -5.5761    0.0000 O   0  0  0  0  0  0  0  0  0  0  0  0
   10.6556   -4.7511    0.0000 O   0  0  0  0  0  0  0  0  0  0  0  0
   10.6556   -3.1011    0.0000 C   0  0  0  0  0  0  0  0  0  0  0  0
    9.9413   -3.5137    0.0000 O   0  0  0  0  0  0  0  0  0  0  0  0
   11.3703   -5.9886    0.0000 C   0  0  2  0  0  0  0  0  0  0  0  0
   11.3703   -6.8135    0.0000 C   0  0  1  0  0  0  0  0  0  0  0  0
   10.6556   -5.5762    0.0000 O   0  0  0  0  0  0  0  0  0  0  0  0
   10.6558   -7.2260    0.0000 C   0  0  2  0  0  0  0  0  0  0  0  0
    9.9412   -5.9887    0.0000 C   0  0  1  0  0  0  0  0  0  0  0  0
    9.9413   -6.8135    0.0000 C   0  0  2  0  0  0  0  0  0  0  0  0
   12.0848   -7.2260    0.0000 N   0  0  0  0  0  0  0  0  0  0  0  0
   10.6556   -8.0510    0.0000 O   0  0  0  0  0  0  0  0  0  0  0  0
    9.2269   -7.2260    0.0000 O   0  0  0  0  0  0  0  0  0  0  0  0
    9.2266   -5.5762    0.0000 C   0  0  0  0  0  0  0  0  0  0  0  0
    8.5123   -5.9886    0.0000 O   0  0  0  0  0  0  0  0  0  0  0  0
   12.0848   -8.0509    0.0000 C   0  0  0  0  0  0  0  0  0  0  0  0
   12.7992   -8.4634    0.0000 O   0  0  0  0  0  0  0  0  0  0  0  0
   11.3703   -8.4635    0.0000 C   0  0  0  0  0  0  0  0  0  0  0  0
   13.5136   -5.5759    0.0000 C   0  0  0  0  0  0  0  0  0  0  0  0
   14.2280   -5.9884    0.0000 O   0  0  0  0  0  0  0  0  0  0  0  0
   12.7992   -5.9886    0.0000 C   0  0  0  0  0  0  0  0  0  0  0  0
   14.2282   -3.5135    0.0000 C   0  0  0  0  0  0  0  0  0  0  0  0
  1  2  1  0  0  0  0
  1  3  1  0  0  0  0
  2  4  1  0  0  0  0
  3  5  1  0  0  0  0
  4  6  1  0  0  0  0
  5  6  1  0  0  0  0
  1  7  1  6  0  0  0
  2  8  1  6  0  0  0
  4  9  1  1  0  0  0
  6 10  1  1  0  0  0
  5 11  1  1  0  0  0
 12 11  1  0  0  0  0
 13 14  1  0  0  0  0
 13 15  1  0  0  0  0
 14 16  1  0  0  0  0
 15 17  1  0  0  0  0
 16 18  1  0  0  0  0
 17 18  1  0  0  0  0
 14 19  1  6  0  0  0
 16 20  1  1  0  0  0
 18 21  1  1  0  0  0
 17 22  1  1  0  0  0
 23 22  1  0  0  0  0
 25 24  2  0  0  0  0
 26 24  1  0  0  0  0
 19 24  1  0  0  0  0
 13  9  1  6  0  0  0
 28 27  2  0  0  0  0
 29 27  1  0  0  0  0
  8 27  1  0  0  0  0
  7 30  1  0  0  0  0
M  END
> <ID>
CHEBI:63230

> <NAME>
alpha-D-GalNpAc-(1->3)-alpha-D-GalpNAc-OMe

> <DEFINITION>
A methyl glycoside that is N-acetyl-α-D-galactosaminyl-(1→3)-N-acetyl-α-D-galactosamine in which the anomeric hydroxy group is replaced by methoxy.

> <STAR>
3

> <SYNONYM>
methyl N-acetyl-alpha-D-galactosaminyl-(1->3)-N-acetyl-alpha-D-galactosaminide; methyl 2-acetamido-3-O-(2-acetamido-2-deoxy-alpha-D-galactopyranosyl)-2-deoxy-alpha-D-galactopyranoside; GalNAcalpha1->3GalNAcalpha1->OMe; alphaGalNAc(1->3)alphaGalNAcOMe; alpha-D-GalNAc-(1->3)-alpha-D-GalNAc-OMe

> <IUPAC_NAME>
methyl 2-acetamido-2-deoxy-alpha-D-galactopyranosyl-(1->3)-2-acetamido-2-deoxy-alpha-D-galactopyranoside

> <FORMULA>
C17H30N2O11

> <MASS>
438.42690

> <MONOISOTOPIC_MASS>
438.18496

> <CHARGE>
0

> <SMILES>
CO[C@H]1O[C@H](CO)[C@H](O)[C@H](O[C@H]2O[C@H](CO)[C@H](O)[C@H](O)[C@H]2NC(C)=O)[C@H]1NC(C)=O

> <INCHI>
InChI=1S/C17H30N2O11/c1-6(22)18-10-14(26)12(24)8(4-20)29-17(10)30-15-11(19-7(2)23)16(27-3)28-9(5-21)13(15)25/h8-17,20-21,24-26H,4-5H2,1-3H3,(H,18,22)(H,19,23)/t8-,9-,10-,11-,12+,13+,14-,15-,16+,17-/m1/s1

> <INCHIKEY>
BCJXKIBXIHQTEP-VGNHIMHRSA-N

> <PUBMED_CITATION>
15864747

$$$$

Marvin  11221114092D          

 37 39  0  0  1  0            999 V2000
    9.6262   -6.5234    0.0000 C   0  0  2  0  0  0  0  0  0  0  0  0
    9.6262   -7.3484    0.0000 C   0  0  1  0  0  0  0  0  0  0  0  0
   10.3388   -7.7547    0.0000 C   0  0  1  0  0  0  0  0  0  0  0  0
   11.0514   -7.3484    0.0000 C   0  0  2  0  0  0  0  0  0  0  0  0
   11.0514   -6.5234    0.0000 C   0  0  1  0  0  0  0  0  0  0  0  0
   10.3388   -6.1047    0.0000 O   0  0  0  0  0  0  0  0  0  0  0  0
   11.7635   -6.1109    0.0000 O   0  0  0  0  0  0  0  0  0  0  0  0
   11.7617   -7.7599    0.0000 O   0  0  0  0  0  0  0  0  0  0  0  0
   10.3388   -8.5798    0.0000 O   0  0  0  0  0  0  0  0  0  0  0  0
    8.9116   -7.7599    0.0000 O   0  0  0  0  0  0  0  0  0  0  0  0
    8.9098   -6.1109    0.0000 C   0  0  0  0  0  0  0  0  0  0  0  0
    8.9074   -5.2859    0.0000 O   0  0  0  0  0  0  0  0  0  0  0  0
   11.0550   -4.0545    0.0000 C   0  0  2  0  0  0  0  0  0  0  0  0
   11.0550   -4.8795    0.0000 C   0  0  2  0  0  0  0  0  0  0  0  0
   11.7635   -5.2859    0.0000 C   0  0  1  0  0  0  0  0  0  0  0  0
   12.4762   -4.8795    0.0000 C   0  0  2  0  0  0  0  0  0  0  0  0
   12.4762   -4.0545    0.0000 C   0  0  1  0  0  0  0  0  0  0  0  0
   11.7635   -3.6358    0.0000 O   0  0  0  0  0  0  0  0  0  0  0  0
   13.1924   -3.6419    0.0000 O   0  0  0  0  0  0  0  0  0  0  0  0
   10.3388   -3.6419    0.0000 C   0  0  0  0  0  0  0  0  0  0  0  0
   10.3363   -2.8168    0.0000 O   0  0  0  0  0  0  0  0  0  0  0  0
   13.1906   -5.2910    0.0000 N   0  0  0  0  0  0  0  0  0  0  0  0
   10.3406   -5.2910    0.0000 O   0  0  0  0  0  0  0  0  0  0  0  0
   13.1894   -6.1160    0.0000 C   0  0  0  0  0  0  0  0  0  0  0  0
   13.9040   -6.5317    0.0000 C   0  0  0  0  0  0  0  0  0  0  0  0
   12.4738   -6.5296    0.0000 O   0  0  0  0  0  0  0  0  0  0  0  0
   12.4797   -1.5854    0.0000 C   0  0  2  0  0  0  0  0  0  0  0  0
   12.4797   -2.4105    0.0000 C   0  0  1  0  0  0  0  0  0  0  0  0
   13.1924   -2.8168    0.0000 C   0  0  1  0  0  0  0  0  0  0  0  0
   13.9049   -2.4105    0.0000 C   0  0  2  0  0  0  0  0  0  0  0  0
   13.9049   -1.5854    0.0000 C   0  0  1  0  0  0  0  0  0  0  0  0
   13.1924   -1.1667    0.0000 O   0  0  0  0  0  0  0  0  0  0  0  0
   14.6171   -1.1729    0.0000 O   0  0  0  0  0  0  0  0  0  0  0  0
   14.6153   -2.8220    0.0000 O   0  0  0  0  0  0  0  0  0  0  0  0
   11.7652   -2.8220    0.0000 O   0  0  0  0  0  0  0  0  0  0  0  0
   11.7634   -1.1729    0.0000 C   0  0  0  0  0  0  0  0  0  0  0  0
   11.7610   -0.3479    0.0000 O   0  0  0  0  0  0  0  0  0  0  0  0
  5  7  1  1  0  0  0
  2  1  1  0  0  0  0
  4  8  1  6  0  0  0
  1  6  1  0  0  0  0
 13 18  1  0  0  0  0
 14 15  1  0  0  0  0
 15 16  1  0  0  0  0
 16 17  1  0  0  0  0
 17 18  1  0  0  0  0
  3  9  1  1  0  0  0
 17 19  1  1  0  0  0
 15  7  1  1  0  0  0
  3  2  1  0  0  0  0
 13 20  1  1  0  0  0
  2 10  1  1  0  0  0
 20 21  1  0  0  0  0
  4  3  1  0  0  0  0
 16 22  1  6  0  0  0
  1 11  1  1  0  0  0
 14 23  1  6  0  0  0
  5  4  1  0  0  0  0
 22 24  1  0  0  0  0
 11 12  1  0  0  0  0
 24 25  1  0  0  0  0
 13 14  1  0  0  0  0
 24 26  2  0  0  0  0
  5  6  1  0  0  0  0
 31 33  1  1  0  0  0
 28 27  1  0  0  0  0
 30 34  1  6  0  0  0
 27 32  1  0  0  0  0
 29 19  1  1  0  0  0
 29 28  1  0  0  0  0
 28 35  1  1  0  0  0
 30 29  1  0  0  0  0
 27 36  1  1  0  0  0
 31 30  1  0  0  0  0
 36 37  1  0  0  0  0
 31 32  1  0  0  0  0
M  END
> <ID>
CHEBI:63232

> <NAME>
beta-D-Galp-(1->3)-beta-D-GlcpNAc-(1->3)-beta-D-Galp

> <DEFINITION>
A linear amino trisaccharide consisting of a galactosyl residue at the non-reducing end linked β-(1→3) to an N-acetylgalactosaminyl residue, which is in turn linked β-(1→3) to a β-galactose unit at the reducing end.

> <STAR>
3

> <SYNONYM>
Galbeta1-3GIcNAcbeta1-3Galbeta; betaGal(1-3)betaGIcNAc(1-3)betaGal; beta-D-galactosyl-(1->3)-N-acetyl-beta-D-glucosyl-(1->3)-beta-D-galactose; beta-D-Gal-(1->3)-beta-D-GlcNAc-(1->3)-beta-D-Gal

> <IUPAC_NAME>
beta-D-galactopyranosyl-(1->3)-2-acetamido-2-deoxy-beta-D-glucopyranosyl-(1->3)-beta-D-galactopyranose

> <FORMULA>
C20H35NO16

> <MASS>
545.48900

> <MONOISOTOPIC_MASS>
545.19558

> <CHARGE>
0

> <SMILES>
CC(=O)N[C@H]1[C@@H](O[C@H](CO)[C@@H](O)[C@@H]1O[C@@H]1O[C@H](CO)[C@H](O)[C@H](O)[C@H]1O)O[C@@H]1[C@@H](O)[C@H](O)O[C@H](CO)[C@@H]1O

> <INCHI>
InChI=1S/C20H35NO16/c1-5(25)21-9-16(36-20-14(30)13(29)10(26)6(2-22)35-20)11(27)8(4-24)34-19(9)37-17-12(28)7(3-23)33-18(32)15(17)31/h6-20,22-24,26-32H,2-4H2,1H3,(H,21,25)/t6-,7-,8-,9-,10+,11-,12+,13+,14-,15-,16-,17+,18-,19+,20+/m1/s1

> <INCHIKEY>
CJOPBLPCFAQCNO-GEONDZFMSA-N

> <PUBMED_CITATION>
1609521

$$$$

Marvin  11221115412D          

 37 39  0  0  1  0            999 V2000
   11.2686   -6.7222    0.0000 C   0  0  1  0  0  0  0  0  0  0  0  0
   10.5541   -7.1346    0.0000 C   0  0  1  0  0  0  0  0  0  0  0  0
   11.2686   -5.8971    0.0000 O   0  0  0  0  0  0  0  0  0  0  0  0
    9.8396   -6.7221    0.0000 C   0  0  2  0  0  0  0  0  0  0  0  0
   10.5542   -5.4846    0.0000 C   0  0  1  0  0  0  0  0  0  0  0  0
    9.8396   -5.8971    0.0000 C   0  0  1  0  0  0  0  0  0  0  0  0
   11.9830   -7.1347    0.0000 O   0  0  0  0  0  0  0  0  0  0  0  0
   10.5540   -7.9596    0.0000 N   0  0  0  0  0  0  0  0  0  0  0  0
    9.1251   -7.1346    0.0000 O   0  0  0  0  0  0  0  0  0  0  0  0
    9.1252   -5.4846    0.0000 O   0  0  0  0  0  0  0  0  0  0  0  0
   10.5542   -4.6596    0.0000 C   0  0  0  0  0  0  0  0  0  0  0  0
   11.2686   -4.2472    0.0000 O   0  0  0  0  0  0  0  0  0  0  0  0
    9.8368   -8.3772    0.0000 C   0  0  0  0  0  0  0  0  0  0  0  0
    9.8397   -9.2022    0.0000 C   0  0  0  0  0  0  0  0  0  0  0  0
    9.1208   -7.9672    0.0000 O   0  0  0  0  0  0  0  0  0  0  0  0
   14.8409   -7.1347    0.0000 C   0  0  1  0  0  0  0  0  0  0  0  0
   14.8409   -7.9597    0.0000 C   0  0  1  0  0  0  0  0  0  0  0  0
   14.1265   -6.7222    0.0000 O   0  0  0  0  0  0  0  0  0  0  0  0
   14.1265   -8.3722    0.0000 C   0  0  2  0  0  0  0  0  0  0  0  0
   13.4120   -7.1347    0.0000 C   0  0  1  0  0  0  0  0  0  0  0  0
   13.4120   -7.9597    0.0000 C   0  0  2  0  0  0  0  0  0  0  0  0
   15.5554   -6.7222    0.0000 O   0  0  0  0  0  0  0  0  0  0  0  0
   15.5554   -8.3722    0.0000 O   0  0  0  0  0  0  0  0  0  0  0  0
   14.1264   -9.1972    0.0000 O   0  0  0  0  0  0  0  0  0  0  0  0
   12.6976   -8.3722    0.0000 O   0  0  0  0  0  0  0  0  0  0  0  0
   12.6976   -6.7222    0.0000 C   0  0  0  0  0  0  0  0  0  0  0  0
    8.4107   -6.7221    0.0000 C   0  0  1  0  0  0  0  0  0  0  0  0
    7.6961   -7.1346    0.0000 C   0  0  1  0  0  0  0  0  0  0  0  0
    8.4107   -5.8970    0.0000 O   0  0  0  0  0  0  0  0  0  0  0  0
    6.9817   -6.7220    0.0000 C   0  0  2  0  0  0  0  0  0  0  0  0
    7.6962   -5.4845    0.0000 C   0  0  1  0  0  0  0  0  0  0  0  0
    6.9817   -5.8970    0.0000 C   0  0  2  0  0  0  0  0  0  0  0  0
    7.6961   -7.9595    0.0000 O   0  0  0  0  0  0  0  0  0  0  0  0
    6.2671   -7.1344    0.0000 O   0  0  0  0  0  0  0  0  0  0  0  0
    6.2673   -5.4845    0.0000 O   0  0  0  0  0  0  0  0  0  0  0  0
    7.6962   -4.6595    0.0000 C   0  0  0  0  0  0  0  0  0  0  0  0
    6.9817   -4.2470    0.0000 O   0  0  0  0  0  0  0  0  0  0  0  0
  1  2  1  0  0  0  0
  1  3  1  0  0  0  0
  2  4  1  0  0  0  0
  3  5  1  0  0  0  0
  4  6  1  0  0  0  0
  5  6  1  0  0  0  0
  1  7  1  1  0  0  0
  2  8  1  6  0  0  0
  4  9  1  1  0  0  0
  6 10  1  6  0  0  0
  5 11  1  1  0  0  0
 12 11  1  0  0  0  0
  8 13  1  0  0  0  0
 13 14  1  0  0  0  0
 13 15  2  0  0  0  0
 16 17  1  0  0  0  0
 16 18  1  0  0  0  0
 17 19  1  0  0  0  0
 18 20  1  0  0  0  0
 19 21  1  0  0  0  0
 20 21  1  0  0  0  0
 16 22  1  1  0  0  0
 17 23  1  6  0  0  0
 19 24  1  1  0  0  0
 21 25  1  1  0  0  0
 20 26  1  1  0  0  0
  7 26  1  0  0  0  0
 27 28  1  0  0  0  0
 27 29  1  0  0  0  0
 28 30  1  0  0  0  0
 29 31  1  0  0  0  0
 30 32  1  0  0  0  0
 31 32  1  0  0  0  0
 28 33  1  6  0  0  0
 30 34  1  1  0  0  0
 32 35  1  1  0  0  0
 31 36  1  1  0  0  0
 37 36  1  0  0  0  0
 27  9  1  1  0  0  0
M  END
> <ID>
CHEBI:63234

> <NAME>
beta-D-Galp-(1->3)-beta-D-GlcpNAc-(1->6)-beta-D-Galp

> <DEFINITION>
An amino trisaccharide that consists of a galactose residue attached by a β-(1→3)-linkage to an N-acetylglucosamine residue, that is in turn attached to a second galactose by a β-(1→6)-linkage.

> <STAR>
3

> <SYNONYM>
betaGal(1-3)betaGlcNAc(1-6)betaGal; beta-D-galactosyl-(1->3)-N-acetyl-beta-D-glucosaminyl-(1->6)-beta-D-galactose; beta-D-galactopyranosyl-(1->3)-2-(acetylamino)-2-deoxy-beta-D-glucopyranosyl-(1->6)-beta-D-galactopyranose; beta-D-Gal-(1->3)-beta-D-GlcNAc-(1->6)-beta-D-Gal

> <IUPAC_NAME>
beta-D-galactopyranosyl-(1->3)-2-acetamido-2-deoxy-beta-D-glucopyranosyl-(1->6)-beta-D-galactopyranose

> <FORMULA>
C20H35NO16

> <MASS>
545.48900

> <MONOISOTOPIC_MASS>
545.19558

> <CHARGE>
0

> <SMILES>
CC(=O)N[C@H]1[C@H](OC[C@H]2O[C@@H](O)[C@H](O)[C@@H](O)[C@H]2O)O[C@H](CO)[C@@H](O)[C@@H]1O[C@@H]1O[C@H](CO)[C@H](O)[C@H](O)[C@H]1O

> <INCHI>
InChI=1S/C20H35NO16/c1-5(24)21-9-17(37-20-16(31)14(29)10(25)6(2-22)36-20)12(27)7(3-23)35-19(9)33-4-8-11(26)13(28)15(30)18(32)34-8/h6-20,22-23,25-32H,2-4H2,1H3,(H,21,24)/t6-,7-,8-,9-,10+,11+,12-,13+,14+,15-,16-,17-,18-,19-,20+/m1/s1

> <INCHIKEY>
IGRLGTPQCHJUAN-CWJNYHMASA-N

> <PUBMED_CITATION>
1609521

$$$$

Marvin  11231115262D          

 47 50  0  0  1  0            999 V2000
    8.5091   -4.5300    0.0000 C   0  0  1  0  0  0  0  0  0  0  0  0
    8.5091   -5.3550    0.0000 C   0  0  1  0  0  0  0  0  0  0  0  0
    7.7947   -4.1176    0.0000 O   0  0  0  0  0  0  0  0  0  0  0  0
    7.7947   -5.7676    0.0000 C   0  0  2  0  0  0  0  0  0  0  0  0
    7.0803   -4.5300    0.0000 C   0  0  1  0  0  0  0  0  0  0  0  0
    7.0803   -5.3550    0.0000 C   0  0  2  0  0  0  0  0  0  0  0  0
    9.2238   -4.1176    0.0000 O   0  0  0  0  0  0  0  0  0  0  0  0
    9.2238   -5.7676    0.0000 O   0  0  0  0  0  0  0  0  0  0  0  0
    7.7947   -6.5924    0.0000 O   0  0  0  0  0  0  0  0  0  0  0  0
    6.3657   -5.7676    0.0000 O   0  0  0  0  0  0  0  0  0  0  0  0
    6.3657   -4.1176    0.0000 C   0  0  0  0  0  0  0  0  0  0  0  0
    5.6515   -4.5300    0.0000 O   0  0  0  0  0  0  0  0  0  0  0  0
    7.0803   -7.0050    0.0000 C   0  0  2  0  0  0  0  0  0  0  0  0
    7.0803   -7.8300    0.0000 C   0  0  1  0  0  0  0  0  0  0  0  0
    6.3657   -6.5924    0.0000 O   0  0  0  0  0  0  0  0  0  0  0  0
    6.3657   -8.2424    0.0000 C   0  0  2  0  0  0  0  0  0  0  0  0
    5.6515   -7.0050    0.0000 C   0  0  1  0  0  0  0  0  0  0  0  0
    5.6515   -7.8300    0.0000 C   0  0  2  0  0  0  0  0  0  0  0  0
    7.7947   -8.2424    0.0000 O   0  0  0  0  0  0  0  0  0  0  0  0
    6.3657   -9.0674    0.0000 O   0  0  0  0  0  0  0  0  0  0  0  0
    4.9369   -8.2424    0.0000 O   0  0  0  0  0  0  0  0  0  0  0  0
    4.9369   -6.5924    0.0000 C   0  0  0  0  0  0  0  0  0  0  0  0
    4.2225   -7.0050    0.0000 O   0  0  0  0  0  0  0  0  0  0  0  0
    9.9382   -7.0050    0.0000 O   0  0  0  0  0  0  0  0  0  0  0  0
   10.6526   -7.4174    0.0000 C   0  0  2  0  0  0  0  0  0  0  0  0
    9.9382   -6.1800    0.0000 C   0  0  2  0  0  0  0  0  0  0  0  0
   10.6526   -5.7674    0.0000 C   0  0  2  0  0  0  0  0  0  0  0  0
   11.3670   -6.1800    0.0000 C   0  0  1  0  0  0  0  0  0  0  0  0
   11.3670   -7.0050    0.0000 C   0  0  2  0  0  0  0  0  0  0  0  0
   10.6528   -4.9426    0.0000 O   0  0  0  0  0  0  0  0  0  0  0  0
   12.0814   -5.7676    0.0000 O   0  0  0  0  0  0  0  0  0  0  0  0
   12.0814   -7.4174    0.0000 O   0  0  0  0  0  0  0  0  0  0  0  0
   10.6526   -8.2424    0.0000 C   0  0  0  0  0  0  0  0  0  0  0  0
   10.6528   -1.6427    0.0000 O   0  0  0  0  0  0  0  0  0  0  0  0
    9.9382   -2.0551    0.0000 C   0  0  1  0  0  0  0  0  0  0  0  0
    9.9382   -2.8801    0.0000 C   0  0  1  0  0  0  0  0  0  0  0  0
    9.2238   -1.6427    0.0000 O   0  0  0  0  0  0  0  0  0  0  0  0
    9.2238   -3.2926    0.0000 C   0  0  2  0  0  0  0  0  0  0  0  0
    8.5094   -2.0551    0.0000 C   0  0  1  0  0  0  0  0  0  0  0  0
    8.5094   -2.8801    0.0000 C   0  0  1  0  0  0  0  0  0  0  0  0
   10.6528   -3.2926    0.0000 N   0  0  0  0  0  0  0  0  0  0  0  0
    7.7950   -3.2926    0.0000 O   0  0  0  0  0  0  0  0  0  0  0  0
    7.7950   -1.6427    0.0000 C   0  0  0  0  0  0  0  0  0  0  0  0
    7.0803   -2.0551    0.0000 O   0  0  0  0  0  0  0  0  0  0  0  0
   11.3670   -2.8800    0.0000 C   0  0  0  0  0  0  0  0  0  0  0  0
   11.3670   -2.0551    0.0000 O   0  0  0  0  0  0  0  0  0  0  0  0
   12.0816   -3.2926    0.0000 C   0  0  0  0  0  0  0  0  0  0  0  0
  1  2  1  0  0  0  0
  1  3  1  0  0  0  0
  2  4  1  0  0  0  0
  3  5  1  0  0  0  0
  4  6  1  0  0  0  0
  5  6  1  0  0  0  0
  1  7  1  1  0  0  0
  2  8  1  6  0  0  0
  4  9  1  1  0  0  0
  6 10  1  1  0  0  0
  5 11  1  1  0  0  0
 12 11  1  0  0  0  0
 13 14  1  0  0  0  0
 13 15  1  0  0  0  0
 14 16  1  0  0  0  0
 15 17  1  0  0  0  0
 16 18  1  0  0  0  0
 17 18  1  0  0  0  0
 13  9  1  6  0  0  0
 14 19  1  6  0  0  0
 16 20  1  1  0  0  0
 18 21  1  1  0  0  0
 17 22  1  1  0  0  0
 23 22  1  0  0  0  0
 25 24  1  0  0  0  0
 26 24  1  0  0  0  0
 26  8  1  1  0  0  0
 26 27  1  0  0  0  0
 27 30  1  1  0  0  0
 27 28  1  0  0  0  0
 28 31  1  6  0  0  0
 28 29  1  0  0  0  0
 29 25  1  0  0  0  0
 29 32  1  6  0  0  0
 25 33  1  6  0  0  0
 35 36  1  0  0  0  0
 35 37  1  0  0  0  0
 36 38  1  0  0  0  0
 37 39  1  0  0  0  0
 38 40  1  0  0  0  0
 39 40  1  0  0  0  0
 35 34  1  1  0  0  0
 36 41  1  6  0  0  0
 38  7  1  1  0  0  0
 40 42  1  6  0  0  0
 39 43  1  1  0  0  0
 44 43  1  0  0  0  0
 46 45  2  0  0  0  0
 47 45  1  0  0  0  0
 41 45  1  0  0  0  0
M  END
> <ID>
CHEBI:63242

> <NAME>
alpha-D-Galp-(1->3)-[alpha-L-Fucp-(1->2)]-beta-D-Galp-(1->3)-beta-D-GlcpNAc

> <DEFINITION>
α-D-Galp-(1→3)-[α-L-Fucp-(1→2)]-β-D-Galp-(1→3)-β-D-GlcpNAc with β configuration at the anomeric carbon of the GlcNAc residue at the reducing end.

> <STAR>
3

> <SYNONYM>
Galalpha1-3(Fucalpha1-2)Galbeta1-3GlcNAcbeta; Galalpha1,3(Fucalpha1,2)Galbeta1,3GlcNAcbeta; Gala1-3(Fuca1-2)Galb1-3GlcNAcb; Fucalpha1-2(Galalpha1-3)Galbeta1-3GlcNAcbeta; blood group B type 1 tetrasaccharide; alphaGal1-3(alphaFuc1-2)betaGal1-3betaGlcNAc; alphaFuc1-2(alphaGal1-3)betaGal1-3betaGlcNAc; alpha-L-Fucp-(1->2)-[alpha-D-Galp-(1->3)]-beta-D-Galp-(1->3)-beta-D-GlcpNAc; alpha-L-fucosyl-(1->2)-[alpha-D-galactosyl-(1->3)]-beta-D-galactosyl-(1->3)-N-acetyl-beta-D-glucosamine; alpha-L-Fuc-(1->2)-[alpha-D-Gal-(1->3)]-beta-D-Gal-(1->3)-beta-D-GlcNAc; alpha-D-galactosyl-(1->3)-[alpha-L-fucosyl-(1->2)]-beta-D-galactosyl-(1->3)-N-acetyl-beta-D-glucosamine; alpha-D-Gal-(1->3)-[alpha-L-Fuc-(1->2)]-beta-D-Gal-(1->3)-beta-D-GlcNAc; 6-deoxy-alpha-L-galactopyranosyl-(1->2)-[alpha-D-galactopyranosyl-(1->3)]-beta-D-galactopyranosyl-(1->3)-2-acetamido-2-deoxy-beta-D-glucopyranose

> <IUPAC_NAME>
alpha-L-fucopyranosyl-(1->2)-[alpha-D-galactopyranosyl-(1->3)]-beta-D-galactopyranosyl-(1->3)-2-acetamido-2-deoxy-beta-D-glucopyranose

> <FORMULA>
C26H45NO20

> <MASS>
691.63020

> <MONOISOTOPIC_MASS>
691.25349

> <CHARGE>
0

> <SMILES>
C[C@@H]1O[C@@H](O[C@H]2[C@@H](O[C@H](CO)[C@H](O)[C@@H]2O[C@H]2O[C@H](CO)[C@H](O)[C@H](O)[C@H]2O)O[C@H]2[C@H](O)[C@@H](CO)O[C@@H](O)[C@@H]2NC(C)=O)[C@@H](O)[C@H](O)[C@@H]1O

> <INCHI>
InChI=1S/C26H45NO20/c1-6-12(32)16(36)18(38)24(41-6)47-22-21(46-25-19(39)17(37)13(33)8(3-28)43-25)15(35)10(5-30)44-26(22)45-20-11(27-7(2)31)23(40)42-9(4-29)14(20)34/h6,8-26,28-30,32-40H,3-5H2,1-2H3,(H,27,31)/t6-,8+,9+,10+,11+,12+,13-,14+,15-,16+,17-,18-,19+,20+,21-,22+,23+,24-,25+,26-/m0/s1

> <INCHIKEY>
UTKJZGYXPDLBQS-STAGDXQRSA-N

> <PUBMED_CITATION>
1609521; 19443021; 24749871; 25568069; 31537530

$$$$

Marvin  11251116042D          

 24 24  0  0  1  0            999 V2000
   11.1445   -4.1198    0.0000 O   0  0  0  0  0  0  0  0  0  0  0  0
   10.4300   -4.5323    0.0000 C   0  0  2  0  0  0  0  0  0  0  0  0
   10.4300   -5.3574    0.0000 C   0  0  2  0  0  0  0  0  0  0  0  0
   11.1445   -5.7698    0.0000 C   0  0  2  0  0  0  0  0  0  0  0  0
   11.8590   -5.3574    0.0000 C   0  0  0  0  0  0  0  0  0  0  0  0
   12.5735   -4.1199    0.0000 C   0  0  0  0  0  0  0  0  0  0  0  0
   11.1444   -6.5947    0.0000 O   0  0  0  0  0  0  0  0  0  0  0  0
   13.2878   -4.5325    0.0000 O   0  0  0  0  0  0  0  0  0  0  0  0
   12.5735   -3.2949    0.0000 O   0  0  0  0  0  0  0  0  0  0  0  0
    9.7156   -4.1198    0.0000 C   0  0  2  0  0  0  0  0  0  0  0  0
    9.0011   -4.5322    0.0000 C   0  0  2  0  0  0  0  0  0  0  0  0
    9.7157   -3.2948    0.0000 N   0  0  0  0  0  0  0  0  0  0  0  0
    8.2867   -4.1198    0.0000 C   0  0  0  0  0  0  0  0  0  0  0  0
    9.0011   -5.3572    0.0000 O   0  0  0  0  0  0  0  0  0  0  0  0
   10.4301   -3.7073    0.0000 H   0  0  0  0  0  0  0  0  0  0  0  0
   11.8590   -4.5323    0.0000 C   0  0  1  0  0  0  0  0  0  0  0  0
   11.8590   -3.7073    0.0000 O   0  0  0  0  0  0  0  0  0  0  0  0
    9.7156   -5.7698    0.0000 N   0  0  0  0  0  0  0  0  0  0  0  0
   10.4301   -7.0072    0.0000 C   0  0  0  0  0  0  0  0  0  0  0  0
    9.7156   -6.5947    0.0000 C   0  0  0  0  0  0  0  0  0  0  0  0
    9.0011   -7.0072    0.0000 O   0  0  0  0  0  0  0  0  0  0  0  0
    9.0013   -2.8822    0.0000 C   0  0  0  0  0  0  0  0  0  0  0  0
    9.0014   -2.0571    0.0000 O   0  0  0  0  0  0  0  0  0  0  0  0
    8.2867   -3.2945    0.0000 C   0  0  0  0  0  0  0  0  0  0  0  0
  2  1  1  0  0  0  0
  2 10  1  0  0  0  0
  2 15  1  1  0  0  0
  2  3  1  0  0  0  0
  3 18  1  6  0  0  0
  3  4  1  0  0  0  0
  4  7  1  6  0  0  0
  4  5  1  0  0  0  0
  1 16  1  0  0  0  0
 16  5  1  0  0  0  0
 16  6  1  0  0  0  0
  6  8  1  0  0  0  0
  6  9  2  0  0  0  0
 10 11  1  0  0  0  0
 10 12  1  6  0  0  0
 11 13  1  0  0  0  0
 11 14  1  1  0  0  0
 16 17  1  1  0  0  0
 18 20  1  0  0  0  0
 20 19  1  0  0  0  0
 20 21  2  0  0  0  0
 23 22  2  0  0  0  0
 24 22  1  0  0  0  0
 12 22  1  0  0  0  0
M  END
> <ID>
CHEBI:63281

> <NAME>
pseudaminic acid

> <DEFINITION>
A nine-membered ketoaldonic acid derivative that is 5,7-diacetamido-3,5,7,9-tetradeoxynon-2-ulopyranosonic acid having L-glycero-α-L-manno-configuration.

> <STAR>
3

> <SYNONYM>
Pse; 5,7-bis(acetylamino)-3,5,7,9-tetradeoxy-L-glycero-alpha-L-manno-non-2-ulopyranosonic acid; 5,7-Bis(acetylamino)-3,5,7,9-tetradeoxy-L-glycero-alpha-L-manno-2-nonulopyranosonic acid

> <IUPAC_NAME>
5,7-diacetamido-3,5,7,9-tetradeoxy-L-glycero-alpha-L-manno-non-2-ulopyranosonic acid

> <FORMULA>
C13H22N2O8

> <MASS>
334.32240

> <MONOISOTOPIC_MASS>
334.13762

> <CHARGE>
0

> <SMILES>
[H][C@]1(O[C@@](O)(C[C@H](O)[C@@H]1NC(C)=O)C(O)=O)[C@@H](NC(C)=O)[C@H](C)O

> <INCHI>
InChI=1S/C13H22N2O8/c1-5(16)9(14-6(2)17)11-10(15-7(3)18)8(19)4-13(22,23-11)12(20)21/h5,8-11,16,19,22H,4H2,1-3H3,(H,14,17)(H,15,18)(H,20,21)/t5-,8-,9-,10-,11-,13-/m0/s1

> <INCHIKEY>
ZJOSXOOPEBJBMC-LJRWBPDUSA-N

> <REAXYS_REGISTRY_NUMBER>
9010355

> <KEGG_COMPOUND_ACCESSION>
C20082

> <PDBECHEM_ACCESSION>
6PZ

> <PUBMED_CITATION>
16120604; 19166860; 19218387; 21158479; 21984942; 29965749

$$$$

Marvin  12161108512D          

 25 26  0  0  1  0            999 V2000
   35.0522  -21.3455    0.0000 N   0  0  0  0  0  0  0  0  0  0  0  0
   35.8368  -20.2656    0.0000 S   0  0  0  0  0  0  0  0  0  0  0  0
   37.0362  -21.3455    0.0000 C   0  0  0  0  0  0  0  0  0  0  0  0
   36.3217  -20.9330    0.0000 C   0  0  0  0  0  0  0  0  0  0  0  0
   37.0362  -20.5206    0.0000 C   0  0  0  0  0  0  0  0  0  0  0  0
   35.8368  -21.6006    0.0000 C   0  0  2  0  0  0  0  0  0  0  0  0
   36.8987  -22.5566    0.0000 O   0  5  0  0  0  0  0  0  0  0  0  0
   36.0917  -22.3851    0.0000 C   0  0  0  0  0  0  0  0  0  0  0  0
   35.5397  -22.9982    0.0000 O   0  0  0  0  0  0  0  0  0  0  0  0
   34.3378  -19.2830    0.0000 N   0  0  0  0  0  0  0  0  0  0  0  0
   33.6234  -18.8705    0.0000 C   0  0  0  0  0  0  0  0  0  0  0  0
   32.9088  -19.2830    0.0000 O   0  0  0  0  0  0  0  0  0  0  0  0
   33.6234  -18.0456    0.0000 C   0  0  0  0  0  0  0  0  0  0  0  0
   32.9090  -16.8080    0.0000 C   0  0  0  0  0  0  0  0  0  0  0  0
   32.1945  -16.3955    0.0000 C   0  0  0  0  0  0  0  0  0  0  0  0
   31.4800  -16.8078    0.0000 C   0  0  0  0  0  0  0  0  0  0  0  0
   31.4800  -17.6330    0.0000 C   0  0  0  0  0  0  0  0  0  0  0  0
   32.1945  -18.0455    0.0000 C   0  0  0  0  0  0  0  0  0  0  0  0
   32.9090  -17.6330    0.0000 C   0  0  0  0  0  0  0  0  0  0  0  0
   35.0522  -20.5206    0.0000 C   0  0  2  0  0  0  0  0  0  0  0  0
   35.0522  -19.6956    0.0000 H   0  0  0  0  0  0  0  0  0  0  0  0
   34.3378  -20.1081    0.0000 C   0  0  1  0  0  0  0  0  0  0  0  0
   33.6234  -20.5206    0.0000 C   0  0  0  0  0  0  0  0  0  0  0  0
   32.9088  -20.1081    0.0000 O   0  0  0  0  0  0  0  0  0  0  0  0
   33.6234  -21.3455    0.0000 O   0  5  0  0  0  0  0  0  0  0  0  0
  1  6  1  0  0  0  0
 20  1  1  0  0  0  0
  2 20  1  0  0  0  0
  2  4  1  0  0  0  0
  6  4  1  0  0  0  0
  4  3  1  0  0  0  0
  4  5  1  0  0  0  0
  6  8  1  6  0  0  0
  8  7  1  0  0  0  0
  8  9  2  0  0  0  0
 22 10  1  1  0  0  0
 10 11  1  0  0  0  0
 11 13  1  0  0  0  0
 11 12  2  0  0  0  0
 13 19  1  0  0  0  0
 14 15  1  0  0  0  0
 14 19  2  0  0  0  0
 15 16  2  0  0  0  0
 16 17  1  0  0  0  0
 17 18  2  0  0  0  0
 18 19  1  0  0  0  0
 20 21  1  6  0  0  0
 20 22  1  0  0  0  0
 22 23  1  0  0  0  0
 23 24  2  0  0  0  0
 23 25  1  0  0  0  0
M  CHG  2   7  -1  25  -1
M  END
> <ID>
CHEBI:63418

> <NAME>
benzylpenicilloate(2-)

> <DEFINITION>
The penicilloate(2−) species that is the dianion formed from benzylpenicilloic acid by deprotonation of both carboxy groups. It is the major microspecies present at pH 7.3.

> <STAR>
3

> <SYNONYM>
benzylpenicilloate

> <IUPAC_NAME>
(2R,4S)-2-{(R)-carboxylato[(phenylacetyl)amino]methyl}-5,5-dimethyl-1,3-thiazolidine-4-carboxylate

> <FORMULA>
C16H18N2O5S

> <MASS>
350.39000

> <MONOISOTOPIC_MASS>
350.09474

> <CHARGE>
-2

> <SMILES>
[H][C@]1(N[C@@H](C([O-])=O)C(C)(C)S1)[C@H](NC(=O)Cc1ccccc1)C([O-])=O

> <INCHI>
InChI=1S/C16H20N2O5S/c1-16(2)12(15(22)23)18-13(24-16)11(14(20)21)17-10(19)8-9-6-4-3-5-7-9/h3-7,11-13,18H,8H2,1-2H3,(H,17,19)(H,20,21)(H,22,23)/p-2/t11-,12-,13+/m0/s1

> <INCHIKEY>
HCYWNSXLUZRKJX-RWMBFGLXSA-L

> <REAXYS_REGISTRY_NUMBER>
6075892

> <PUBMED_CITATION>
13930142; 2058815; 6975618; 7305936

$$$$

Marvin  01091211532D          

 19 20  0  0  0  0            999 V2000
    9.0554   -5.2225    0.0000 C   0  0  0  0  0  0  0  0  0  0  0  0
    9.7666   -5.6209    0.0000 C   0  0  0  0  0  0  0  0  0  0  0  0
   10.4778   -5.2225    0.0000 C   0  0  0  0  0  0  0  0  0  0  0  0
   11.2175   -5.6209    0.0000 C   0  0  0  0  0  0  0  0  0  0  0  0
   11.9287   -5.2225    0.0000 C   0  0  0  0  0  0  0  0  0  0  0  0
    9.0554   -4.3975    0.0000 O   0  0  0  0  0  0  0  0  0  0  0  0
    8.3442   -5.6209    0.0000 O   0  5  0  0  0  0  0  0  0  0  0  0
   12.6399   -5.6209    0.0000 N   0  0  0  0  0  0  0  0  0  0  0  0
   15.5701   -4.1130    0.0000 N   0  3  0  0  0  0  0  0  0  0  0  0
   15.5701   -5.4502    0.0000 N   0  0  0  0  0  0  0  0  0  0  0  0
   16.0537   -4.7959    0.0000 C   0  0  0  0  0  0  0  0  0  0  0  0
   14.7736   -4.3691    0.0000 C   0  0  0  0  0  0  0  0  0  0  0  0
   14.7736   -5.2225    0.0000 C   0  0  0  0  0  0  0  0  0  0  0  0
   14.0339   -5.6209    0.0000 C   0  0  0  0  0  0  0  0  0  0  0  0
   13.3511   -5.2225    0.0000 C   0  0  0  0  0  0  0  0  0  0  0  0
   13.3511   -4.3691    0.0000 C   0  0  0  0  0  0  0  0  0  0  0  0
   14.0339   -3.9709    0.0000 C   0  0  0  0  0  0  0  0  0  0  0  0
   16.8787   -4.7959    0.0000 N   0  0  0  0  0  0  0  0  0  0  0  0
   11.9287   -4.3975    0.0000 O   0  0  0  0  0  0  0  0  0  0  0  0
  2  1  1  0  0  0  0
  7  1  1  0  0  0  0
  6  1  2  0  0  0  0
  3  2  1  0  0  0  0
  4  3  1  0  0  0  0
  5  4  1  0  0  0  0
  8  5  1  0  0  0  0
 19  5  2  0  0  0  0
 15  8  1  0  0  0  0
 11  9  2  0  0  0  0
 12  9  1  0  0  0  0
 11 10  1  0  0  0  0
 13 10  1  0  0  0  0
 18 11  1  0  0  0  0
 13 12  2  0  0  0  0
 17 12  1  0  0  0  0
 14 13  1  0  0  0  0
 15 14  2  0  0  0  0
 16 15  1  0  0  0  0
 17 16  2  0  0  0  0
M  CHG  2   7  -1   9   1
M  END
> <ID>
CHEBI:63537

> <NAME>
5-[(2-aminobenzimidazol-6-yl)amino]-5-oxopentanoic acid zwitterion

> <DEFINITION>
A zwitterion obtained by transfer of a proton from the carboxy group to position 3 of the benzimidazole ring of 5-[(2-aminobenzimidazol-6-yl)amino]-5-oxopentanoic acid.

> <STAR>
3

> <SYNONYM>
5-[(2-amino-3H-benzimidazol-5-yl)amino]-5-oxopentanoic acid zwitterion; 2-amino-6-glutaramidobenzimidazole zwitterion

> <IUPAC_NAME>
5-[(2-amino-1H-3,1-benzimidazol-3-ium-6-yl)amino]-5-oxopentanoate

> <FORMULA>
C12H14N4O3

> <MASS>
262.26460

> <MONOISOTOPIC_MASS>
262.10659

> <CHARGE>
0

> <SMILES>
Nc1[nH]c2cc(NC(=O)CCCC([O-])=O)ccc2[nH+]1

> <INCHI>
InChI=1S/C12H14N4O3/c13-12-15-8-5-4-7(6-9(8)16-12)14-10(17)2-1-3-11(18)19/h4-6H,1-3H2,(H,14,17)(H,18,19)(H3,13,15,16)

> <INCHIKEY>
KYOKAWLLGVBQKM-UHFFFAOYSA-N

$$$$

Marvin  01161217302D          

 25 26  0  0  0  0            999 V2000
    7.8953   -9.2447    0.0000 C   0  0  0  0  0  0  0  0  0  0  0  0
    8.6098   -8.8322    0.0000 N   0  0  0  0  0  0  0  0  0  0  0  0
    9.3242   -9.2447    0.0000 C   0  0  0  0  0  0  0  0  0  0  0  0
   10.0387   -8.8322    0.0000 C   0  0  0  0  0  0  0  0  0  0  0  0
   10.7532   -9.2447    0.0000 C   0  0  0  0  0  0  0  0  0  0  0  0
   11.4676   -8.8322    0.0000 C   0  0  0  0  0  0  0  0  0  0  0  0
   12.1821   -9.2447    0.0000 C   0  0  0  0  0  0  0  0  0  0  0  0
   12.8966   -8.8322    0.0000 O   0  0  0  0  0  0  0  0  0  0  0  0
   12.1821  -10.0697    0.0000 O   0  0  0  0  0  0  0  0  0  0  0  0
    8.6098   -8.0072    0.0000 C   0  0  0  0  0  0  0  0  0  0  0  0
    9.3243   -6.7697    0.0000 C   0  0  0  0  0  0  0  0  0  0  0  0
    9.3243   -7.5947    0.0000 C   0  0  0  0  0  0  0  0  0  0  0  0
    8.6098   -6.3572    0.0000 C   0  0  0  0  0  0  0  0  0  0  0  0
    7.8953   -6.7697    0.0000 C   0  0  0  0  0  0  0  0  0  0  0  0
    7.8953   -7.5947    0.0000 C   0  0  0  0  0  0  0  0  0  0  0  0
    8.6098   -5.5322    0.0000 C   0  0  0  0  0  0  0  0  0  0  0  0
    9.3242   -5.1197    0.0000 C   0  0  0  0  0  0  0  0  0  0  0  0
    9.3242   -4.2947    0.0000 C   0  0  0  0  0  0  0  0  0  0  0  0
   10.0387   -3.0572    0.0000 C   0  0  0  0  0  0  0  0  0  0  0  0
   10.0387   -3.8822    0.0000 C   0  0  0  0  0  0  0  0  0  0  0  0
    9.3242   -2.6447    0.0000 C   0  0  0  0  0  0  0  0  0  0  0  0
    8.6097   -3.0572    0.0000 C   0  0  0  0  0  0  0  0  0  0  0  0
    8.6097   -3.8822    0.0000 C   0  0  0  0  0  0  0  0  0  0  0  0
    9.3242   -1.8197    0.0000 C   0  0  0  0  0  0  0  0  0  0  0  0
    9.3242   -0.9947    0.0000 N   0  0  0  0  0  0  0  0  0  0  0  0
  2  1  1  0  0  0  0
  3  2  1  0  0  0  0
  4  3  1  0  0  0  0
  5  4  1  0  0  0  0
  6  5  1  0  0  0  0
  7  6  1  0  0  0  0
  8  7  1  0  0  0  0
  7  9  2  0  0  0  0
  2 10  1  0  0  0  0
 12 11  1  0  0  0  0
 13 11  2  0  0  0  0
 10 12  2  0  0  0  0
 14 13  1  0  0  0  0
 15 10  1  0  0  0  0
 15 14  2  0  0  0  0
 13 16  1  0  0  0  0
 16 17  2  0  0  0  0
 17 18  1  0  0  0  0
 20 19  1  0  0  0  0
 21 19  2  0  0  0  0
 18 20  2  0  0  0  0
 22 21  1  0  0  0  0
 23 18  1  0  0  0  0
 23 22  2  0  0  0  0
 25 24  3  0  0  0  0
 21 24  1  0  0  0  0
M  END
> <ID>
CHEBI:63595

> <NAME>
5-{N-[4-(4-cyanostyryl)phenyl]-N-methylamino}pentanoic acid

> <DEFINITION>
A tertiary amino compound in which nitrogen is substituted by a methyl group, a 5-carboxypentyl group and a 4-[2-(4-cyanophenyl)vinyl]phenyl group.

> <STAR>
3

> <IUPAC_NAME>
5-[{4-[(E)-2-(4-cyanophenyl)ethenyl]phenyl}(methyl)amino]pentanoic acid

> <FORMULA>
C21H22N2O2

> <MASS>
334.41160

> <MONOISOTOPIC_MASS>
334.16813

> <CHARGE>
0

> <SMILES>
CN(CCCCC(O)=O)c1ccc(cc1)\C=C\c1ccc(cc1)C#N

> <INCHI>
InChI=1S/C21H22N2O2/c1-23(15-3-2-4-21(24)25)20-13-11-18(12-14-20)6-5-17-7-9-19(16-22)10-8-17/h5-14H,2-4,15H2,1H3,(H,24,25)/b6-5+

> <INCHIKEY>
ZJVNDTIARCDQHR-AATRIKPKSA-N

> <REAXYS_REGISTRY_NUMBER>
10700840

> <PUBMED_CITATION>
17089439

$$$$

Marvin  01271215292D          

 23 23  0  0  0  0            999 V2000
    9.8791   -7.9171    0.0000 C   0  0  0  0  0  0  0  0  0  0  0  0
    9.8791   -8.7421    0.0000 C   0  0  0  0  0  0  0  0  0  0  0  0
    9.1645   -7.5046    0.0000 C   0  0  0  0  0  0  0  0  0  0  0  0
    9.1645   -9.1546    0.0000 C   0  0  0  0  0  0  0  0  0  0  0  0
    8.4501   -7.9171    0.0000 C   0  0  0  0  0  0  0  0  0  0  0  0
    8.4501   -8.7421    0.0000 C   0  0  0  0  0  0  0  0  0  0  0  0
    7.7356   -9.1546    0.0000 N   0  0  0  0  0  0  0  0  0  0  0  0
    7.0211   -8.7421    0.0000 C   0  0  0  0  0  0  0  0  0  0  0  0
    6.3066   -9.1545    0.0000 C   0  0  0  0  0  0  0  0  0  0  0  0
    5.5921   -8.7420    0.0000 C   0  0  0  0  0  0  0  0  0  0  0  0
    4.8777   -9.1545    0.0000 C   0  0  0  0  0  0  0  0  0  0  0  0
    4.1632   -8.7420    0.0000 C   0  0  0  0  0  0  0  0  0  0  0  0
    3.4487   -9.1545    0.0000 O   0  0  0  0  0  0  0  0  0  0  0  0
    4.1632   -7.9170    0.0000 O   0  0  0  0  0  0  0  0  0  0  0  0
    7.0211   -7.9171    0.0000 O   0  0  0  0  0  0  0  0  0  0  0  0
   10.5935   -7.5046    0.0000 C   0  0  0  0  0  0  0  0  0  0  0  0
   11.3080   -7.9171    0.0000 C   0  0  0  0  0  0  0  0  0  0  0  0
   12.0225   -7.5045    0.0000 C   0  0  0  0  0  0  0  0  0  0  0  0
   12.7369   -7.9170    0.0000 C   0  0  0  0  0  0  0  0  0  0  0  0
   13.4514   -7.5045    0.0000 C   0  0  0  0  0  0  0  0  0  0  0  0
   14.1659   -7.9170    0.0000 C   0  0  0  0  0  0  0  0  0  0  0  0
   12.0225   -6.6796    0.0000 O   0  0  0  0  0  0  0  0  0  0  0  0
   13.4514   -6.6795    0.0000 O   0  0  0  0  0  0  0  0  0  0  0  0
  2  1  1  0  0  0  0
  3  1  2  0  0  0  0
  4  2  2  0  0  0  0
  5  3  1  0  0  0  0
  6  4  1  0  0  0  0
  6  5  2  0  0  0  0
  6  7  1  0  0  0  0
  7  8  1  0  0  0  0
  8  9  1  0  0  0  0
  9 10  1  0  0  0  0
 10 11  1  0  0  0  0
 11 12  1  0  0  0  0
 12 13  1  0  0  0  0
 12 14  2  0  0  0  0
  8 15  2  0  0  0  0
  1 16  1  0  0  0  0
 16 17  1  0  0  0  0
 17 18  1  0  0  0  0
 18 19  1  0  0  0  0
 19 20  1  0  0  0  0
 20 21  1  0  0  0  0
 18 22  2  0  0  0  0
 20 23  2  0  0  0  0
M  END
> <ID>
CHEBI:63773

> <NAME>
4-[4-(3,5-dioxohexyl)phenylcarbamoyl]butyric acid

> <DEFINITION>
A carbamoyl derivative of butyric acid which includes a 1,3-diketone functionality.

> <STAR>
3

> <IUPAC_NAME>
5-{[4-(3,5-dioxohexyl)phenyl]amino}-5-oxopentanoic acid

> <FORMULA>
C17H21NO5

> <MASS>
319.35230

> <MONOISOTOPIC_MASS>
319.14197

> <CHARGE>
0

> <SMILES>
CC(=O)CC(=O)CCc1ccc(NC(=O)CCCC(O)=O)cc1

> <INCHI>
InChI=1S/C17H21NO5/c1-12(19)11-15(20)10-7-13-5-8-14(9-6-13)18-16(21)3-2-4-17(22)23/h5-6,8-9H,2-4,7,10-11H2,1H3,(H,18,21)(H,22,23)

> <INCHIKEY>
KWUITAARNKUOMJ-UHFFFAOYSA-N

> <REAXYS_REGISTRY_NUMBER>
14611056

> <PUBMED_CITATION>
19968282

$$$$

Marvin  02071211552D          

 14 14  0  0  0  0            999 V2000
    8.7920   -7.1772    0.0000 N   0  0  0  0  0  0  0  0  0  0  0  0
    8.7920   -6.3522    0.0000 C   0  0  0  0  0  0  0  0  0  0  0  0
    9.5064   -5.9397    0.0000 C   0  0  0  0  0  0  0  0  0  0  0  0
    9.5064   -5.1147    0.0000 C   0  0  0  0  0  0  0  0  0  0  0  0
    8.7920   -4.7022    0.0000 C   0  0  0  0  0  0  0  0  0  0  0  0
    8.0775   -5.1147    0.0000 C   0  0  0  0  0  0  0  0  0  0  0  0
    8.0775   -5.9397    0.0000 C   0  0  0  0  0  0  0  0  0  0  0  0
    8.7920   -3.8772    0.0000 S   0  0  0  0  0  0  0  0  0  0  0  0
    9.6170   -3.8772    0.0000 O   0  0  0  0  0  0  0  0  0  0  0  0
    7.9670   -3.8772    0.0000 O   0  0  0  0  0  0  0  0  0  0  0  0
    8.7920   -3.0522    0.0000 N   0  0  0  0  0  0  0  0  0  0  0  0
    9.5064   -2.6397    0.0000 C   0  0  0  0  0  0  0  0  0  0  0  0
    9.5064   -1.8147    0.0000 O   0  0  0  0  0  0  0  0  0  0  0  0
   10.2209   -3.0522    0.0000 C   0  0  0  0  0  0  0  0  0  0  0  0
  1  2  1  0  0  0  0
  2  3  2  0  0  0  0
  2  7  1  0  0  0  0
  3  4  1  0  0  0  0
  4  5  2  0  0  0  0
  5  6  1  0  0  0  0
  5  8  1  0  0  0  0
  6  7  2  0  0  0  0
  8 10  2  0  0  0  0
  8  9  2  0  0  0  0
  8 11  1  0  0  0  0
 13 12  2  0  0  0  0
 14 12  1  0  0  0  0
 11 12  1  0  0  0  0
M  END
> <ID>
CHEBI:63845

> <NAME>
sulfacetamide

> <DEFINITION>
A sulfonamide that is sulfanilamide acylated on the sulfonamide nitrogen.

> <STAR>
3

> <SYNONYM>
Sulphacetamidum; Sulphacetamide; Sulfanilazetamid; p-Aminobenzenesulfonoacetamide; p-Aminobenzenesulfonacetamide; N(1)-acetylsulfanilamide; N(1)-acetyl-4-aminophenylsulfonamide; N-Sulphanilylacetamide; N-Sulfanilylacetamide; N-Acetylsulfanilamide; N-Acetyl-4-aminobenzenesulfonamide; N-[(p-Aminophenyl)sulfonyl]acetamide; N-(p-Aminobenzenesulfonyl)acetamide; N-((p-Aminophenyl)sulfonyl)acetamide; N'-Acetylsulfanilamide; Acetosulfamine

> <IUPAC_NAME>
N-[(4-aminophenyl)sulfonyl]acetamide

> <INN>
sulfacetamidum; sulfacetamide; sulfacetamida

> <FORMULA>
C8H10N2O3S

> <MASS>
214.24200

> <MONOISOTOPIC_MASS>
214.04121

> <CHARGE>
0

> <SMILES>
CC(=O)NS(=O)(=O)c1ccc(N)cc1

> <INCHI>
InChI=1S/C8H10N2O3S/c1-6(11)10-14(12,13)8-4-2-7(9)3-5-8/h2-5H,9H2,1H3,(H,10,11)

> <INCHIKEY>
SKIVFJLNDNKQPD-UHFFFAOYSA-N

> <BEILSTEIN_REGISTRY_NUMBER>
981718

> <CAS_REGISTRY_NUMBER>
144-80-9

> <REAXYS_REGISTRY_NUMBER>
981718

> <CHEMIDPLUS>
144-80-9

> <DRUGBANK_ACCESSION>
DB00634

> <KEGG_DRUG_ACCESSION>
D05947

> <LINCS_ACCESSION>
LSM-5374

> <NIST_CHEMISTRY_WEBBOOK>
144-80-9

> <WIKIPEDIA_ACCESSION>
Sulfacetamide

> <PUBMED_CITATION>
21486528

$$$$

Marvin  02091216092D          

 20 21  0  0  0  0            999 V2000
   16.0758   -8.1140    0.0000 C   0  0  0  0  0  0  0  0  0  0  0  0
   15.3705   -8.5255    0.0000 C   0  0  0  0  0  0  0  0  0  0  0  0
   14.6358   -8.1140    0.0000 C   0  0  0  0  0  0  0  0  0  0  0  0
   13.9305   -8.5255    0.0000 C   0  0  0  0  0  0  0  0  0  0  0  0
   16.0758   -7.2912    0.0000 O   0  0  0  0  0  0  0  0  0  0  0  0
   16.8106   -8.5255    0.0000 O   0  0  0  0  0  0  0  0  0  0  0  0
   13.1957   -8.1140    0.0000 N   0  0  0  0  0  0  0  0  0  0  0  0
   12.4904   -8.5255    0.0000 C   0  0  0  0  0  0  0  0  0  0  0  0
   10.8740   -7.1149    0.0000 O   0  0  0  0  0  0  0  0  0  0  0  0
   10.4626   -7.8496    0.0000 C   0  0  0  0  0  0  0  0  0  0  0  0
   11.0209   -8.4667    0.0000 N   0  0  0  0  0  0  0  0  0  0  0  0
   11.7557   -8.1140    0.0000 C   0  0  0  0  0  0  0  0  0  0  0  0
   11.6969   -7.2912    0.0000 C   0  0  0  0  0  0  0  0  0  0  0  0
   12.3141   -6.7621    0.0000 O   0  0  0  0  0  0  0  0  0  0  0  0
    8.4935   -8.7606    0.0000 C   0  0  0  0  0  0  0  0  0  0  0  0
    7.9939   -8.0846    0.0000 C   0  0  0  0  0  0  0  0  0  0  0  0
    8.3171   -7.3206    0.0000 C   0  0  0  0  0  0  0  0  0  0  0  0
    9.1400   -7.2617    0.0000 C   0  0  0  0  0  0  0  0  0  0  0  0
    9.6397   -7.9083    0.0000 C   0  0  0  0  0  0  0  0  0  0  0  0
    9.2870   -8.6725    0.0000 C   0  0  0  0  0  0  0  0  0  0  0  0
  2  1  1  0  0  0  0
  6  1  1  0  0  0  0
  5  1  2  0  0  0  0
  3  2  2  0  0  0  0
  4  3  1  0  0  0  0
  7  4  1  0  0  0  0
  8  7  1  0  0  0  0
 12  8  2  0  0  0  0
 10  9  1  0  0  0  0
 13  9  1  0  0  0  0
 11 10  2  0  0  0  0
 19 10  1  0  0  0  0
 12 11  1  0  0  0  0
 13 12  1  0  0  0  0
 14 13  2  0  0  0  0
 20 15  2  0  0  0  0
 16 15  1  0  0  0  0
 17 16  2  0  0  0  0
 18 17  1  0  0  0  0
 19 18  2  0  0  0  0
 20 19  1  0  0  0  0
M  END
> <ID>
CHEBI:63875

> <NAME>
4-[(5-oxo-2-phenyl-1,3-oxazol-4-ylidene)methylamino]but-2-enoic acid

> <DEFINITION>
A monocarboxylic acid that is but-2-enoic acid in which one of the hydrogens at position 4 is substituted by a [(E)-(5-oxo-2-phenyl-1,3-oxazol-4(5H)-ylidene)methyl]amino moiety.

> <STAR>
3

> <IUPAC_NAME>
(2E)-4-{[(E)-(5-oxo-2-phenyl-1,3-oxazol-4(5H)-ylidene)methyl]amino}but-2-enoic acid

> <FORMULA>
C14H12N2O4

> <MASS>
272.25610

> <MONOISOTOPIC_MASS>
272.07971

> <CHARGE>
0

> <SMILES>
OC(=O)\C=C\CN\C=C1\N=C(OC1=O)c1ccccc1

> <INCHI>
InChI=1S/C14H12N2O4/c17-12(18)7-4-8-15-9-11-14(19)20-13(16-11)10-5-2-1-3-6-10/h1-7,9,15H,8H2,(H,17,18)/b7-4+,11-9+

> <INCHIKEY>
NWPKPRWNDVEPNY-WUZDHUPESA-N

> <PDBECHEM_ACCESSION>
PHX

$$$$

Marvin  03131217122D          

 34 36  0  0  1  0            999 V2000
    7.0253   -8.2163    0.0000 C   0  0  2  0  0  0  0  0  0  0  0  0
    7.0253   -9.0413    0.0000 C   0  0  2  0  0  0  0  0  0  0  0  0
    6.3107   -7.8038    0.0000 O   0  0  0  0  0  0  0  0  0  0  0  0
    6.3107   -9.4538    0.0000 C   0  0  2  0  0  0  0  0  0  0  0  0
    5.5963   -8.2163    0.0000 C   0  0  1  0  0  0  0  0  0  0  0  0
    5.5963   -9.0413    0.0000 C   0  0  1  0  0  0  0  0  0  0  0  0
    7.7397   -7.8038    0.0000 O   0  0  0  0  0  0  0  0  0  0  0  0
    7.7397   -9.4538    0.0000 O   0  0  0  0  0  0  0  0  0  0  0  0
    6.3107  -10.2788    0.0000 O   0  0  0  0  0  0  0  0  0  0  0  0
    4.8819   -9.4538    0.0000 O   0  0  0  0  0  0  0  0  0  0  0  0
    4.8819   -7.8038    0.0000 C   0  0  0  0  0  0  0  0  0  0  0  0
    4.1673   -8.2163    0.0000 O   0  0  0  0  0  0  0  0  0  0  0  0
    8.4542   -5.7414    0.0000 C   0  0  2  0  0  0  0  0  0  0  0  0
    8.4542   -6.5663    0.0000 C   0  0  2  0  0  0  0  0  0  0  0  0
    7.7397   -5.3289    0.0000 O   0  0  0  0  0  0  0  0  0  0  0  0
    7.7397   -6.9788    0.0000 C   0  0  2  0  0  0  0  0  0  0  0  0
    7.0253   -5.7414    0.0000 C   0  0  1  0  0  0  0  0  0  0  0  0
    7.0253   -6.5663    0.0000 C   0  0  1  0  0  0  0  0  0  0  0  0
    9.1686   -5.3289    0.0000 O   0  0  0  0  0  0  0  0  0  0  0  0
    9.1686   -6.9788    0.0000 O   0  0  0  0  0  0  0  0  0  0  0  0
    6.3108   -6.9788    0.0000 O   0  0  0  0  0  0  0  0  0  0  0  0
    6.3108   -5.3289    0.0000 C   0  0  0  0  0  0  0  0  0  0  0  0
    5.5963   -5.7414    0.0000 O   0  0  0  0  0  0  0  0  0  0  0  0
    9.8832   -4.0914    0.0000 C   0  0  2  0  0  0  0  0  0  0  0  0
    9.1686   -4.5039    0.0000 C   0  0  2  0  0  0  0  0  0  0  0  0
    9.8832   -3.2663    0.0000 O   0  0  0  0  0  0  0  0  0  0  0  0
    8.4542   -4.0913    0.0000 C   0  0  2  0  0  0  0  0  0  0  0  0
    9.1687   -2.8538    0.0000 C   0  0  1  0  0  0  0  0  0  0  0  0
    8.4543   -3.2663    0.0000 C   0  0  1  0  0  0  0  0  0  0  0  0
   10.5976   -4.5039    0.0000 O   0  0  0  0  0  0  0  0  0  0  0  0
    7.7398   -4.5038    0.0000 O   0  0  0  0  0  0  0  0  0  0  0  0
    7.7398   -2.8538    0.0000 O   0  0  0  0  0  0  0  0  0  0  0  0
    9.1687   -2.0288    0.0000 C   0  0  0  0  0  0  0  0  0  0  0  0
    8.4543   -1.6163    0.0000 O   0  0  0  0  0  0  0  0  0  0  0  0
  1  2  1  0  0  0  0
  1  3  1  0  0  0  0
  2  4  1  0  0  0  0
  3  5  1  0  0  0  0
  4  6  1  0  0  0  0
  5  6  1  0  0  0  0
  1  7  1  6  0  0  0
  2  8  1  1  0  0  0
  4  9  1  1  0  0  0
  6 10  1  6  0  0  0
  5 11  1  1  0  0  0
 12 11  1  0  0  0  0
 13 14  1  0  0  0  0
 13 15  1  0  0  0  0
 14 16  1  0  0  0  0
 15 17  1  0  0  0  0
 16 18  1  0  0  0  0
 17 18  1  0  0  0  0
 13 19  1  6  0  0  0
 14 20  1  1  0  0  0
 16  7  1  1  0  0  0
 18 21  1  6  0  0  0
 17 22  1  1  0  0  0
 23 22  1  0  0  0  0
 24 25  1  0  0  0  0
 24 26  1  0  0  0  0
 25 27  1  0  0  0  0
 26 28  1  0  0  0  0
 27 29  1  0  0  0  0
 28 29  1  0  0  0  0
 24 30  1  6  0  0  0
 25 19  1  1  0  0  0
 27 31  1  1  0  0  0
 29 32  1  6  0  0  0
 28 33  1  1  0  0  0
 34 33  1  0  0  0  0
M  END
> <ID>
CHEBI:64167

> <NAME>
alpha-D-Manp-(1->3)-alpha-D-Manp-(1->2)-alpha-D-Manp

> <DEFINITION>
α-D-Manp-(1→3)-α-D-Manp-(1→2)-D-Manp having α-configuration at the reducing end anomeric centre.

> <STAR>
3

> <SYNONYM>
Mannotriose; Manalpha1->3Manalpha1->2Manalpha; alpha-D-mannosyl-(1->3)-alpha-D-mannosyl-(1->2)-alpha-D-mannose; alpha-D-Man-(1->3)-alpha-D-Man-(1->2)-alpha-D-Man

> <IUPAC_NAME>
alpha-D-mannopyranosyl-(1->3)-alpha-D-mannopyranosyl-(1->2)-alpha-D-mannopyranose

> <FORMULA>
C18H32O16

> <MASS>
504.43710

> <MONOISOTOPIC_MASS>
504.16903

> <CHARGE>
0

> <SMILES>
OC[C@H]1O[C@H](O)[C@@H](O[C@H]2O[C@H](CO)[C@@H](O)[C@H](O[C@H]3O[C@H](CO)[C@@H](O)[C@H](O)[C@@H]3O)[C@@H]2O)[C@@H](O)[C@@H]1O

> <INCHI>
InChI=1S/C18H32O16/c19-1-4-8(23)11(26)15(16(29)30-4)34-18-13(28)14(9(24)6(3-21)32-18)33-17-12(27)10(25)7(22)5(2-20)31-17/h4-29H,1-3H2/t4-,5-,6-,7-,8-,9-,10+,11+,12+,13+,14+,15+,16+,17-,18-/m1/s1

> <INCHIKEY>
LHAOFBCHXGZGOR-NAVBLJQLSA-N

> <CAS_REGISTRY_NUMBER>
6817-81-8

> <REAXYS_REGISTRY_NUMBER>
5660027

> <CHEMIDPLUS>
6817-81-8

> <PUBMED_CITATION>
22326546

$$$$

Marvin  03141210552D          

 23 24  0  0  1  0            999 V2000
    9.7231   -4.8577    0.0000 C   0  0  2  0  0  0  0  0  0  0  0  0
    9.7231   -5.6826    0.0000 C   0  0  2  0  0  0  0  0  0  0  0  0
    9.0086   -4.4452    0.0000 O   0  0  0  0  0  0  0  0  0  0  0  0
    9.0086   -6.0950    0.0000 C   0  0  2  0  0  0  0  0  0  0  0  0
    8.2942   -4.8577    0.0000 C   0  0  1  0  0  0  0  0  0  0  0  0
    8.2942   -5.6826    0.0000 C   0  0  1  0  0  0  0  0  0  0  0  0
   10.4375   -4.4452    0.0000 O   0  0  0  0  0  0  0  0  0  0  0  0
    9.0086   -6.9200    0.0000 O   0  0  0  0  0  0  0  0  0  0  0  0
    7.5797   -6.0950    0.0000 O   0  0  0  0  0  0  0  0  0  0  0  0
    7.5797   -4.4452    0.0000 C   0  0  0  0  0  0  0  0  0  0  0  0
    6.8653   -4.8577    0.0000 O   0  0  0  0  0  0  0  0  0  0  0  0
   10.4376   -6.0951    0.0000 O   0  0  0  0  0  0  0  0  0  0  0  0
   10.4376   -6.9201    0.0000 C   0  0  1  0  0  0  0  0  0  0  0  0
   11.1521   -7.3326    0.0000 C   0  0  2  0  0  0  0  0  0  0  0  0
    9.7231   -7.3326    0.0000 O   0  0  0  0  0  0  0  0  0  0  0  0
   11.1521   -8.1576    0.0000 C   0  0  2  0  0  0  0  0  0  0  0  0
    9.7231   -8.1576    0.0000 C   0  0  1  0  0  0  0  0  0  0  0  0
   10.4376   -8.5701    0.0000 C   0  0  1  0  0  0  0  0  0  0  0  0
   11.8665   -6.9201    0.0000 O   0  0  0  0  0  0  0  0  0  0  0  0
   11.8664   -8.5700    0.0000 O   0  0  0  0  0  0  0  0  0  0  0  0
   10.4375   -9.3951    0.0000 O   0  0  0  0  0  0  0  0  0  0  0  0
    9.0086   -8.5701    0.0000 C   0  0  0  0  0  0  0  0  0  0  0  0
    9.0086   -9.3950    0.0000 O   0  0  0  0  0  0  0  0  0  0  0  0
  1  2  1  0  0  0  0
  1  3  1  0  0  0  0
  2  4  1  0  0  0  0
  3  5  1  0  0  0  0
  4  6  1  0  0  0  0
  5  6  1  0  0  0  0
  1  7  1  6  0  0  0
  4  8  1  1  0  0  0
  6  9  1  6  0  0  0
  5 10  1  1  0  0  0
 11 10  1  0  0  0  0
  2 12  1  1  0  0  0
 13 14  1  0  0  0  0
 13 15  1  0  0  0  0
 14 16  1  0  0  0  0
 15 17  1  0  0  0  0
 16 18  1  0  0  0  0
 17 18  1  0  0  0  0
 14 19  1  1  0  0  0
 16 20  1  1  0  0  0
 18 21  1  6  0  0  0
 17 22  1  1  0  0  0
 23 22  1  0  0  0  0
 13 12  1  1  0  0  0
M  END
> <ID>
CHEBI:64168

> <NAME>
beta-D-Manp-(1->2)-alpha-D-Manp

> <DEFINITION>
A glycosylmannose consisting of α-D-mannose having a β-D-mannosyl residue attached at the 2-position.

> <STAR>
3

> <SYNONYM>
Manbeta1->3Manalpha; beta-D-mannosyl-(1->2)-alpha-D-mannose; beta-D-Man-(1->2)-alpha-D-Man; 2-O-beta-D-mannopyranosyl-alpha-D-mannopyranose

> <IUPAC_NAME>
beta-D-mannopyranosyl-(1->2)-alpha-D-mannopyranose

> <FORMULA>
C12H22O11

> <MASS>
342.29650

> <MONOISOTOPIC_MASS>
342.11621

> <CHARGE>
0

> <SMILES>
OC[C@H]1O[C@H](O)[C@@H](O[C@@H]2O[C@H](CO)[C@@H](O)[C@H](O)[C@@H]2O)[C@@H](O)[C@@H]1O

> <INCHI>
InChI=1S/C12H22O11/c13-1-3-6(16)8(18)10(11(20)21-3)23-12-9(19)7(17)5(15)4(2-14)22-12/h3-20H,1-2H2/t3-,4-,5-,6-,7+,8+,9+,10+,11+,12+/m1/s1

> <INCHIKEY>
HIWPGCMGAMJNRG-ONPLHCRPSA-N

> <REAXYS_REGISTRY_NUMBER>
5482422

> <PUBMED_CITATION>
18788729; 22326546

$$$$

Marvin  03141212072D          

 45 48  0  0  1  0            999 V2000
    8.7963   -9.1812    0.0000 O   0  0  0  0  0  0  0  0  0  0  0  0
    9.5109   -7.1187    0.0000 C   0  0  1  0  0  0  0  0  0  0  0  0
    9.5109   -7.9437    0.0000 C   0  0  2  0  0  0  0  0  0  0  0  0
    8.7963   -6.7062    0.0000 O   0  0  0  0  0  0  0  0  0  0  0  0
    8.7963   -8.3561    0.0000 C   0  0  2  0  0  0  0  0  0  0  0  0
    8.0819   -7.1187    0.0000 C   0  0  1  0  0  0  0  0  0  0  0  0
    8.0819   -7.9437    0.0000 C   0  0  1  0  0  0  0  0  0  0  0  0
   10.2253   -6.7062    0.0000 O   0  0  0  0  0  0  0  0  0  0  0  0
   10.2253   -8.3561    0.0000 O   0  0  0  0  0  0  0  0  0  0  0  0
    7.3673   -8.3561    0.0000 O   0  0  0  0  0  0  0  0  0  0  0  0
    7.3673   -6.7062    0.0000 C   0  0  0  0  0  0  0  0  0  0  0  0
    6.6528   -7.1187    0.0000 O   0  0  0  0  0  0  0  0  0  0  0  0
   10.9399   -5.4687    0.0000 C   0  0  1  0  0  0  0  0  0  0  0  0
   10.2253   -5.8812    0.0000 C   0  0  2  0  0  0  0  0  0  0  0  0
   10.9399   -4.6435    0.0000 O   0  0  0  0  0  0  0  0  0  0  0  0
    9.5109   -5.4685    0.0000 C   0  0  2  0  0  0  0  0  0  0  0  0
   10.2254   -4.2310    0.0000 C   0  0  1  0  0  0  0  0  0  0  0  0
    9.5110   -4.6435    0.0000 C   0  0  1  0  0  0  0  0  0  0  0  0
   11.6544   -5.8812    0.0000 O   0  0  0  0  0  0  0  0  0  0  0  0
    8.7964   -5.8810    0.0000 O   0  0  0  0  0  0  0  0  0  0  0  0
    8.7964   -4.2310    0.0000 O   0  0  0  0  0  0  0  0  0  0  0  0
   10.2254   -3.4060    0.0000 C   0  0  0  0  0  0  0  0  0  0  0  0
    9.5110   -2.9934    0.0000 O   0  0  0  0  0  0  0  0  0  0  0  0
   13.0833   -5.8813    0.0000 C   0  0  2  0  0  0  0  0  0  0  0  0
   12.3689   -5.4687    0.0000 C   0  0  2  0  0  0  0  0  0  0  0  0
   13.7978   -5.4687    0.0000 O   0  0  0  0  0  0  0  0  0  0  0  0
   12.3689   -4.6437    0.0000 C   0  0  2  0  0  0  0  0  0  0  0  0
   13.7978   -4.6437    0.0000 C   0  0  1  0  0  0  0  0  0  0  0  0
   13.0834   -4.2312    0.0000 C   0  0  1  0  0  0  0  0  0  0  0  0
   13.0833   -6.7063    0.0000 O   0  0  0  0  0  0  0  0  0  0  0  0
   11.6544   -4.2311    0.0000 O   0  0  0  0  0  0  0  0  0  0  0  0
   13.0834   -3.4062    0.0000 O   0  0  0  0  0  0  0  0  0  0  0  0
   14.5123   -4.2312    0.0000 C   0  0  0  0  0  0  0  0  0  0  0  0
   14.5123   -3.4062    0.0000 O   0  0  0  0  0  0  0  0  0  0  0  0
   10.2253   -9.1811    0.0000 C   0  0  1  0  0  0  0  0  0  0  0  0
   10.9398   -9.5937    0.0000 C   0  0  2  0  0  0  0  0  0  0  0  0
    9.5107   -9.5937    0.0000 O   0  0  0  0  0  0  0  0  0  0  0  0
   10.9397  -10.4188    0.0000 C   0  0  2  0  0  0  0  0  0  0  0  0
    9.5107  -10.4187    0.0000 C   0  0  1  0  0  0  0  0  0  0  0  0
   10.2252  -10.8313    0.0000 C   0  0  1  0  0  0  0  0  0  0  0  0
   11.6542   -9.1812    0.0000 O   0  0  0  0  0  0  0  0  0  0  0  0
   11.6542  -10.8314    0.0000 O   0  0  0  0  0  0  0  0  0  0  0  0
   10.2252  -11.6562    0.0000 O   0  0  0  0  0  0  0  0  0  0  0  0
    8.7962  -10.8311    0.0000 C   0  0  0  0  0  0  0  0  0  0  0  0
    8.7961  -11.6563    0.0000 O   0  0  0  0  0  0  0  0  0  0  0  0
  2  3  1  0  0  0  0
  2  4  1  0  0  0  0
  3  5  1  0  0  0  0
  4  6  1  0  0  0  0
  5  7  1  0  0  0  0
  6  7  1  0  0  0  0
  2  8  1  1  0  0  0
  3  9  1  1  0  0  0
  5  1  1  1  0  0  0
  7 10  1  6  0  0  0
  6 11  1  1  0  0  0
 12 11  1  0  0  0  0
 13 14  1  0  0  0  0
 13 15  1  0  0  0  0
 14 16  1  0  0  0  0
 15 17  1  0  0  0  0
 16 18  1  0  0  0  0
 17 18  1  0  0  0  0
 13 19  1  1  0  0  0
 14  8  1  1  0  0  0
 16 20  1  1  0  0  0
 18 21  1  6  0  0  0
 17 22  1  1  0  0  0
 23 22  1  0  0  0  0
 24 25  1  0  0  0  0
 24 26  1  0  0  0  0
 25 27  1  0  0  0  0
 26 28  1  0  0  0  0
 27 29  1  0  0  0  0
 28 29  1  0  0  0  0
 24 30  1  6  0  0  0
 25 19  1  1  0  0  0
 27 31  1  1  0  0  0
 29 32  1  6  0  0  0
 28 33  1  1  0  0  0
 34 33  1  0  0  0  0
 35 36  1  0  0  0  0
 35 37  1  0  0  0  0
 36 38  1  0  0  0  0
 37 39  1  0  0  0  0
 38 40  1  0  0  0  0
 39 40  1  0  0  0  0
 36 41  1  1  0  0  0
 38 42  1  1  0  0  0
 40 43  1  6  0  0  0
 39 44  1  1  0  0  0
 45 44  1  0  0  0  0
 35  9  1  1  0  0  0
M  END
> <ID>
CHEBI:64169

> <NAME>
beta-D-Man-(1->2)-beta-D-Man-(1->2)-beta-D-Man-(1->2)-alpha-D-Man

> <DEFINITION>
β-D-Man-(1→2)-β-D-Man-(1→2)-β-D-Man-(1→2)-D-Man having α-configuration at the reducing end anomeric centre.

> <STAR>
3

> <SYNONYM>
Manbeta1->2Manbeta1->2Manbeta1->2Manalpha; beta-D-Manp-(1->2)-beta-D-Manp-(1->2)-beta-D-Manp-(1->2)-alpha-D-Manp; beta-D-mannosyl-(1->2)-beta-D-mannosyl-(1->2)-beta-D-mannosyl-(1->2)-alpha-D-mannose

> <IUPAC_NAME>
beta-D-mannopyranosyl-(1->2)-beta-D-mannopyranosyl-(1->2)-beta-D-mannopyranosyl-(1->2)-alpha-D-mannopyranose

> <FORMULA>
C24H42O21

> <MASS>
666.57770

> <MONOISOTOPIC_MASS>
666.22186

> <CHARGE>
0

> <SMILES>
OC[C@H]1O[C@H](O)[C@@H](O[C@@H]2O[C@H](CO)[C@@H](O)[C@H](O)[C@@H]2O[C@@H]2O[C@H](CO)[C@@H](O)[C@H](O)[C@@H]2O[C@@H]2O[C@H](CO)[C@@H](O)[C@H](O)[C@@H]2O)[C@@H](O)[C@@H]1O

> <INCHI>
InChI=1S/C24H42O21/c25-1-5-10(30)14(34)18(21(38)39-5)43-23-20(16(36)12(32)7(3-27)41-23)45-24-19(15(35)11(31)8(4-28)42-24)44-22-17(37)13(33)9(29)6(2-26)40-22/h5-38H,1-4H2/t5-,6-,7-,8-,9-,10-,11-,12-,13+,14+,15+,16+,17+,18+,19+,20+,21+,22+,23+,24+/m1/s1

> <INCHIKEY>
RVKKLZMEZUGKOE-HDSHYPEKSA-N

> <PUBMED_CITATION>
18788729; 22326546

$$$$

Mrv0541 06201409162D          

 34 36  0  0  1  0            999 V2000
   15.3731   -7.5423    0.0000 O   0  0  0  0  0  0  0  0  0  0  0  0
   13.2299   -7.9550    0.0000 C   0  0  1  0  0  0  0  0  0  0  0  0
   13.9442   -7.5424    0.0000 C   0  0  2  0  0  0  0  0  0  0  0  0
   13.2300   -8.7801    0.0000 O   0  0  0  0  0  0  0  0  0  0  0  0
   14.6587   -7.9549    0.0000 C   0  0  2  0  0  0  0  0  0  0  0  0
   13.9445   -9.1923    0.0000 C   0  0  1  0  0  0  0  0  0  0  0  0
   14.6589   -8.7798    0.0000 C   0  0  1  0  0  0  0  0  0  0  0  0
   12.5153   -7.5427    0.0000 O   0  0  0  0  0  0  0  0  0  0  0  0
   13.9441   -6.7175    0.0000 O   0  0  0  0  0  0  0  0  0  0  0  0
   15.3733   -9.1923    0.0000 O   0  0  0  0  0  0  0  0  0  0  0  0
   13.9446  -10.0174    0.0000 C   0  0  0  0  0  0  0  0  0  0  0  0
   14.6592  -10.4298    0.0000 O   0  0  0  0  0  0  0  0  0  0  0  0
   11.0864   -7.5428    0.0000 C   0  0  1  0  0  0  0  0  0  0  0  0
   11.8009   -7.9553    0.0000 C   0  0  2  0  0  0  0  0  0  0  0  0
   10.3718   -7.9555    0.0000 O   0  0  0  0  0  0  0  0  0  0  0  0
   11.8009   -8.7803    0.0000 C   0  0  2  0  0  0  0  0  0  0  0  0
   10.3720   -8.7805    0.0000 C   0  0  1  0  0  0  0  0  0  0  0  0
   11.0865   -9.1928    0.0000 C   0  0  1  0  0  0  0  0  0  0  0  0
   11.0862   -6.7179    0.0000 O   0  0  0  0  0  0  0  0  0  0  0  0
   12.5154   -9.1926    0.0000 O   0  0  0  0  0  0  0  0  0  0  0  0
   11.0866  -10.0178    0.0000 O   0  0  0  0  0  0  0  0  0  0  0  0
    9.6576   -9.1931    0.0000 C   0  0  0  0  0  0  0  0  0  0  0  0
    9.6576  -10.0180    0.0000 O   0  0  0  0  0  0  0  0  0  0  0  0
   10.3718   -5.4804    0.0000 C   0  0  2  0  0  0  0  0  0  0  0  0
   10.3718   -6.3054    0.0000 C   0  0  2  0  0  0  0  0  0  0  0  0
    9.6571   -5.0680    0.0000 O   0  0  0  0  0  0  0  0  0  0  0  0
    9.6574   -6.7180    0.0000 C   0  0  2  0  0  0  0  0  0  0  0  0
    8.9427   -5.4806    0.0000 C   0  0  1  0  0  0  0  0  0  0  0  0
    8.9428   -6.3055    0.0000 C   0  0  1  0  0  0  0  0  0  0  0  0
   11.0862   -5.0678    0.0000 O   0  0  0  0  0  0  0  0  0  0  0  0
    9.6574   -7.5430    0.0000 O   0  0  0  0  0  0  0  0  0  0  0  0
    8.2284   -6.7181    0.0000 O   0  0  0  0  0  0  0  0  0  0  0  0
    8.2282   -5.0683    0.0000 C   0  0  0  0  0  0  0  0  0  0  0  0
    7.5138   -5.4809    0.0000 O   0  0  0  0  0  0  0  0  0  0  0  0
  2  3  1  0  0  0  0
  2  4  1  0  0  0  0
  3  5  1  0  0  0  0
  4  6  1  0  0  0  0
  5  7  1  0  0  0  0
  6  7  1  0  0  0  0
  2  8  1  1  0  0  0
  3  9  1  1  0  0  0
  5  1  1  1  0  0  0
  7 10  1  6  0  0  0
  6 11  1  1  0  0  0
 12 11  1  0  0  0  0
 13 14  1  0  0  0  0
 13 15  1  0  0  0  0
 14 16  1  0  0  0  0
 15 17  1  0  0  0  0
 16 18  1  0  0  0  0
 17 18  1  0  0  0  0
 13 19  1  1  0  0  0
 14  8  1  1  0  0  0
 16 20  1  1  0  0  0
 18 21  1  6  0  0  0
 17 22  1  1  0  0  0
 23 22  1  0  0  0  0
 24 25  1  0  0  0  0
 24 26  1  0  0  0  0
 25 27  1  0  0  0  0
 26 28  1  0  0  0  0
 27 29  1  0  0  0  0
 28 29  1  0  0  0  0
 24 30  1  6  0  0  0
 25 19  1  1  0  0  0
 27 31  1  1  0  0  0
 29 32  1  6  0  0  0
 28 33  1  1  0  0  0
 34 33  1  0  0  0  0
M  END
> <ID>
CHEBI:64170

> <NAME>
beta-D-Manp-(1->2)-beta-D-Manp-(1->2)-alpha-D-Manp

> <DEFINITION>
A linear trisaccharide consisting of three D-mannose units joined by β-(1→2)-linkages (with α-configuration at the reducing-end anomeric centre). Present in the cell wall phosphomannan of Candida albicans.

> <STAR>
3

> <SYNONYM>
Manbeta1->2Manbeta1->2Manalpha; beta-D-mannosyl-(1->2)-beta-D-mannosyl-(1->2)-alpha-D-mannose; beta-D-Man-(1->2)-beta-D-Man-(1->2)-alpha-D-Man

> <IUPAC_NAME>
beta-D-mannopyranosyl-(1->2)-beta-D-mannopyranosyl-(1->2)-alpha-D-mannopyranose

> <FORMULA>
C18H32O16

> <MASS>
504.43710

> <MONOISOTOPIC_MASS>
504.16903

> <CHARGE>
0

> <SMILES>
OC[C@H]1O[C@H](O)[C@@H](O[C@@H]2O[C@H](CO)[C@@H](O)[C@H](O)[C@@H]2O[C@@H]2O[C@H](CO)[C@@H](O)[C@H](O)[C@@H]2O)[C@@H](O)[C@@H]1O

> <INCHI>
InChI=1S/C18H32O16/c19-1-4-8(23)11(26)14(16(29)30-4)33-18-15(12(27)9(24)6(3-21)32-18)34-17-13(28)10(25)7(22)5(2-20)31-17/h4-29H,1-3H2/t4-,5-,6-,7-,8-,9-,10+,11+,12+,13+,14+,15+,16+,17+,18+/m1/s1

> <INCHIKEY>
UQBIAGWOJDEOMN-QGVHWXALSA-N

> <REAXYS_REGISTRY_NUMBER>
19194456

> <PUBMED_CITATION>
18788729; 22326546; 24601638

$$$$

Marvin  03141214562D          

 14 14  0  0  1  0            999 V2000
    9.0014   -6.8675    0.0000 C   0  0  1  0  0  0  0  0  0  0  0  0
    9.0014   -7.6925    0.0000 O   0  0  0  0  0  0  0  0  0  0  0  0
    8.2869   -6.4550    0.0000 C   0  0  2  0  0  0  0  0  0  0  0  0
    7.5725   -6.8675    0.0000 O   0  0  0  0  0  0  0  0  0  0  0  0
    8.2869   -5.6301    0.0000 C   0  0  2  0  0  0  0  0  0  0  0  0
    9.7159   -5.6301    0.0000 C   0  0  0  0  0  0  0  0  0  0  0  0
   10.4302   -5.2176    0.0000 O   0  0  0  0  0  0  0  0  0  0  0  0
   10.4302   -6.8675    0.0000 O   0  0  0  0  0  0  0  0  0  0  0  0
    9.0014   -5.2176    0.0000 O   0  0  0  0  0  0  0  0  0  0  0  0
    9.7159   -6.4550    0.0000 C   0  0  1  0  0  0  0  0  0  0  0  0
    7.5725   -5.2176    0.0000 C   0  0  1  0  0  0  0  0  0  0  0  0
    6.8580   -5.6301    0.0000 O   0  0  0  0  0  0  0  0  0  0  0  0
    8.2836   -4.8348    0.0000 H   0  0  0  0  0  0  0  0  0  0  0  0
    7.5725   -4.3926    0.0000 C   0  0  0  0  0  0  0  0  0  0  0  0
  5  3  1  0  0  0  0
  5  9  1  0  0  0  0
  3  1  1  0  0  0  0
  9  6  1  0  0  0  0
  1 10  1  0  0  0  0
  6 10  1  0  0  0  0
  1  2  1  1  0  0  0
  3  4  1  6  0  0  0
  5 11  1  0  0  0  0
  6  7  1  0  0  0  0
 10  8  1  1  0  0  0
 11 12  1  0  0  0  0
  5 13  1  6  0  0  0
 11 14  1  1  0  0  0
M  END
> <ID>
CHEBI:64171

> <NAME>
(6S)-6-C-methyl-D-mannopyranose

> <DEFINITION>
A deoxyheptose that is L-glycero-D-manno-heptopyranose in which the 7-hydroxy group is substituted by hydrogen.

> <STAR>
3

> <SYNONYM>
7-deoxy-L-glycero-D-manno-heptose; 6-C-methyl-D-mannose; 6-C-methyl-D-mannopyranose; (6S)-6-C-methyl-D-mannose; (5R)-5-[(1S)-1-hydroxyethyl]-D-lyxopyranose

> <IUPAC_NAME>
7-deoxy-L-glycero-D-manno-heptopyranose

> <FORMULA>
C7H14O6

> <MASS>
194.18250

> <MONOISOTOPIC_MASS>
194.07904

> <CHARGE>
0

> <SMILES>
[H][C@@]1(OC(O)[C@@H](O)[C@@H](O)[C@@H]1O)[C@H](C)O

> <INCHI>
InChI=1S/C7H14O6/c1-2(8)6-4(10)3(9)5(11)7(12)13-6/h2-12H,1H3/t2-,3-,4-,5-,6+,7?/m0/s1

> <INCHIKEY>
PZODEECXPHBZCU-OLLRPPRZSA-N

> <REAXYS_REGISTRY_NUMBER>
10256012

> <PUBMED_CITATION>
20852065

$$$$

Marvin  03141215492D          

 47 50  0  0  1  0            999 V2000
   17.9753   -9.7772    0.0000 O   0  0  0  0  0  0  0  0  0  0  0  0
   17.2238  -10.1908    0.0000 C   0  0  2  0  0  0  0  0  0  0  0  0
   17.2241  -11.0175    0.0000 C   0  0  1  0  0  0  0  0  0  0  0  0
   17.9755  -11.4683    0.0000 O   0  0  0  0  0  0  0  0  0  0  0  0
   16.5101  -11.4310    0.0000 C   0  0  1  0  0  0  0  0  0  0  0  0
   16.5102  -12.2951    0.0000 O   0  0  0  0  0  0  0  0  0  0  0  0
   15.7962  -11.0177    0.0000 C   0  0  2  0  0  0  0  0  0  0  0  0
   15.0821  -11.4311    0.0000 O   0  0  0  0  0  0  0  0  0  0  0  0
   15.7959  -10.1911    0.0000 C   0  0  2  0  0  0  0  0  0  0  0  0
   16.5098   -9.7776    0.0000 O   0  0  0  0  0  0  0  0  0  0  0  0
   15.0819   -9.7779    0.0000 C   0  0  0  0  0  0  0  0  0  0  0  0
   14.3681  -10.1914    0.0000 O   0  0  0  0  0  0  0  0  0  0  0  0
   17.9758  -12.2949    0.0000 C   0  0  2  0  0  0  0  0  0  0  0  0
   18.6898  -12.7082    0.0000 C   0  0  1  0  0  0  0  0  0  0  0  0
   19.4037  -12.2947    0.0000 O   0  0  0  0  0  0  0  0  0  0  0  0
   18.6524  -13.5725    0.0000 C   0  0  1  0  0  0  0  0  0  0  0  0
   19.4040  -13.9857    0.0000 O   0  0  0  0  0  0  0  0  0  0  0  0
   17.9385  -13.9484    0.0000 C   0  0  2  0  0  0  0  0  0  0  0  0
   17.9385  -14.7750    0.0000 O   0  0  0  0  0  0  0  0  0  0  0  0
   17.2245  -13.5352    0.0000 C   0  0  2  0  0  0  0  0  0  0  0  0
   17.2243  -12.7084    0.0000 O   0  0  0  0  0  0  0  0  0  0  0  0
   16.5106  -13.9485    0.0000 C   0  0  0  0  0  0  0  0  0  0  0  0
   16.5107  -14.7752    0.0000 O   0  0  0  0  0  0  0  0  0  0  0  0
   18.7092   -7.6839    0.0000 C   0  0  2  0  0  0  0  0  0  0  0  0
   19.4245   -7.2730    0.0000 O   0  0  0  0  0  0  0  0  0  0  0  0
   18.7092   -8.5089    0.0000 C   0  0  2  0  0  0  0  0  0  0  0  0
   17.9751   -8.9523    0.0000 C   0  0  2  0  0  0  0  0  0  0  0  0
   17.2597   -8.5383    0.0000 C   0  0  2  0  0  0  0  0  0  0  0  0
   16.5413   -8.9819    0.0000 O   0  0  0  0  0  0  0  0  0  0  0  0
   17.2457   -7.6620    0.0000 C   0  0  2  0  0  0  0  0  0  0  0  0
   17.9937   -7.2698    0.0000 O   0  0  0  0  0  0  0  0  0  0  0  0
   16.5303   -7.2479    0.0000 C   0  0  0  0  0  0  0  0  0  0  0  0
   15.7960   -7.6913    0.0000 O   0  0  0  0  0  0  0  0  0  0  0  0
   19.4277   -8.9143    0.0000 O   0  0  0  0  0  0  0  0  0  0  0  0
   21.5465  -12.7096    0.0000 C   0  0  1  0  0  0  0  0  0  0  0  0
   22.2614  -12.2979    0.0000 O   0  0  0  0  0  0  0  0  0  0  0  0
   21.5456  -13.5346    0.0000 C   0  0  2  0  0  0  0  0  0  0  0  0
   22.2595  -13.9478    0.0000 O   0  0  0  0  0  0  0  0  0  0  0  0
   20.8307  -13.9463    0.0000 C   0  0  2  0  0  0  0  0  0  0  0  0
   20.1176  -12.7079    0.0000 C   0  0  1  0  0  0  0  0  0  0  0  0
   20.8335  -11.4714    0.0000 O   0  0  0  0  0  0  0  0  0  0  0  0
   20.1167  -13.5329    0.0000 O   0  0  0  0  0  0  0  0  0  0  0  0
   20.8326  -12.2963    0.0000 C   0  0  1  0  0  0  0  0  0  0  0  0
   20.8297  -14.7711    0.0000 C   0  0  1  0  0  0  0  0  0  0  0  0
   21.5437  -15.1845    0.0000 O   0  0  0  0  0  0  0  0  0  0  0  0
   21.5447  -14.3596    0.0000 H   0  0  0  0  0  0  0  0  0  0  0  0
   20.1148  -15.1828    0.0000 C   0  0  0  0  0  0  0  0  0  0  0  0
  2  1  1  6  0  0  0
  3  2  1  0  0  0  0
 10  2  1  0  0  0  0
  3  4  1  1  0  0  0
  5  3  1  0  0  0  0
 13  4  1  6  0  0  0
  5  6  1  1  0  0  0
  7  5  1  0  0  0  0
  7  8  1  6  0  0  0
  9  7  1  0  0  0  0
 10  9  1  0  0  0  0
  9 11  1  1  0  0  0
 12 11  1  0  0  0  0
 14 13  1  0  0  0  0
 21 13  1  0  0  0  0
 14 15  1  1  0  0  0
 16 14  1  0  0  0  0
 16 17  1  1  0  0  0
 18 16  1  0  0  0  0
 18 19  1  6  0  0  0
 20 18  1  0  0  0  0
 21 20  1  0  0  0  0
 20 22  1  1  0  0  0
 23 22  1  0  0  0  0
 24 25  1  6  0  0  0
 26 24  1  0  0  0  0
 31 24  1  0  0  0  0
 27 26  1  0  0  0  0
 27  1  1  1  0  0  0
 28 27  1  0  0  0  0
 28 29  1  6  0  0  0
 30 28  1  0  0  0  0
 31 30  1  0  0  0  0
 30 32  1  1  0  0  0
 33 32  1  0  0  0  0
 26 34  1  1  0  0  0
 39 37  1  0  0  0  0
 39 42  1  0  0  0  0
 37 35  1  0  0  0  0
 42 40  1  0  0  0  0
 35 43  1  0  0  0  0
 40 43  1  0  0  0  0
 35 36  1  1  0  0  0
 37 38  1  6  0  0  0
 39 44  1  0  0  0  0
 40 15  1  6  0  0  0
 43 41  1  1  0  0  0
 44 45  1  0  0  0  0
 39 46  1  6  0  0  0
 44 47  1  1  0  0  0
M  END
> <ID>
CHEBI:64175

> <NAME>
6-C-Me-alpha-D-Manp-(1->2)-alpha-D-Manp-(1->2)-alpha-D-Manp-(1->3)-alpha-D-Manp

> <DEFINITION>
A linear tetrasaccharide that consists of a 6-C-methyl-D-mannosyl residue at the non-reducing end and three D-mannosyl resides joined by sequential α-(1→2)-, α-(1→2)- and α-(1→3)-linkages.

> <STAR>
3

> <SYNONYM>
6-C-methyl-alpha-D-mannosyl-(1->2)-alpha-D-mannosyl-(1->2)-alpha-D-mannosyl-(1->3)-alpha-D-mannose; 6-C-Me-alpha-D-Man-(1->2)-alpha-D-Man-(1->2)-alpha-D-Man-(1->3)-alpha-D-Man

> <IUPAC_NAME>
7-deoxy-L-glycero-alpha-D-manno-heptosyl-(1->2)-alpha-D-mannosyl-(1->2)-alpha-D-mannosyl-(1->3)-alpha-D-mannose; 7-deoxy-L-glycero-alpha-D-manno-heptopyranosyl-(1->2)-alpha-D-mannopyranosyl-(1->2)-alpha-D-mannopyranosyl-(1->3)-alpha-D-mannopyranose

> <FORMULA>
C25H44O21

> <MASS>
680.60430

> <MONOISOTOPIC_MASS>
680.23751

> <CHARGE>
0

> <SMILES>
[H][C@@]1(O[C@H](O[C@H]2[C@@H](O)[C@H](O)[C@@H](CO)O[C@@H]2O[C@H]2[C@@H](O)[C@H](O)[C@@H](CO)O[C@@H]2O[C@@H]2[C@H](O)[C@@H](O)O[C@H](CO)[C@H]2O)[C@@H](O)[C@@H](O)[C@@H]1O)[C@H](C)O

> <INCHI>
InChI=1S/C25H44O21/c1-5(29)18-15(36)12(33)16(37)23(43-18)45-20-13(34)9(30)7(3-27)42-25(20)46-21-14(35)10(31)6(2-26)41-24(21)44-19-11(32)8(4-28)40-22(39)17(19)38/h5-39H,2-4H2,1H3/t5-,6+,7+,8+,9+,10+,11+,12-,13-,14-,15-,16-,17-,18+,19-,20-,21-,22-,23+,24+,25+/m0/s1

> <INCHIKEY>
AOHFQBGCCOUOCV-ODFFCZNRSA-N

> <REAXYS_REGISTRY_NUMBER>
21055504

> <PUBMED_CITATION>
20852065

$$$$

Marvin  03271209392D          

 45 48  0  0  1  0            999 V2000
   10.4586   -5.4786    0.0000 C   0  0  2  0  0  0  0  0  0  0  0  0
   10.4587   -6.3020    0.0000 O   0  0  0  0  0  0  0  0  0  0  0  0
    9.7446   -5.0685    0.0000 C   0  0  1  0  0  0  0  0  0  0  0  0
    9.0305   -5.4821    0.0000 O   0  0  0  0  0  0  0  0  0  0  0  0
    9.7257   -4.2127    0.0000 C   0  0  1  0  0  0  0  0  0  0  0  0
    9.0116   -3.8029    0.0000 O   0  0  0  0  0  0  0  0  0  0  0  0
   10.4397   -3.7994    0.0000 C   0  0  2  0  0  0  0  0  0  0  0  0
   10.4128   -2.9571    0.0000 O   0  0  0  0  0  0  0  0  0  0  0  0
   11.2050   -4.2228    0.0000 C   0  0  2  0  0  0  0  0  0  0  0  0
   11.1727   -5.0651    0.0000 O   0  0  0  0  0  0  0  0  0  0  0  0
   11.9190   -3.8094    0.0000 C   0  0  0  0  0  0  0  0  0  0  0  0
   11.9003   -2.9536    0.0000 O   0  0  0  0  0  0  0  0  0  0  0  0
    8.2976   -5.0397    0.0000 C   0  0  2  0  0  0  0  0  0  0  0  0
    7.5835   -5.4532    0.0000 C   0  0  1  0  0  0  0  0  0  0  0  0
    7.5699   -6.3278    0.0000 O   0  0  0  0  0  0  0  0  0  0  0  0
    6.8694   -5.0432    0.0000 C   0  0  1  0  0  0  0  0  0  0  0  0
    6.1230   -5.4755    0.0000 O   0  0  0  0  0  0  0  0  0  0  0  0
    6.8694   -4.2199    0.0000 C   0  0  2  0  0  0  0  0  0  0  0  0
    6.1553   -3.8098    0.0000 O   0  0  0  0  0  0  0  0  0  0  0  0
    7.5834   -3.8063    0.0000 C   0  0  2  0  0  0  0  0  0  0  0  0
    8.2974   -4.2163    0.0000 O   0  0  0  0  0  0  0  0  0  0  0  0
    7.5832   -2.9830    0.0000 C   0  0  0  0  0  0  0  0  0  0  0  0
    6.8691   -2.5731    0.0000 O   0  0  0  0  0  0  0  0  0  0  0  0
    6.8560   -6.7413    0.0000 C   0  0  2  0  0  0  0  0  0  0  0  0
    6.8560   -7.5647    0.0000 C   0  0  1  0  0  0  0  0  0  0  0  0
    7.5700   -7.9747    0.0000 O   0  0  0  0  0  0  0  0  0  0  0  0
    6.0906   -7.9645    0.0000 C   0  0  1  0  0  0  0  0  0  0  0  0
    6.1095   -8.8204    0.0000 O   0  0  0  0  0  0  0  0  0  0  0  0
    5.4090   -7.5358    0.0000 C   0  0  2  0  0  0  0  0  0  0  0  0
    4.6949   -7.9492    0.0000 O   0  0  0  0  0  0  0  0  0  0  0  0
    5.4089   -6.7125    0.0000 C   0  0  2  0  0  0  0  0  0  0  0  0
    6.1230   -6.2989    0.0000 O   0  0  0  0  0  0  0  0  0  0  0  0
    4.6949   -6.3025    0.0000 C   0  0  0  0  0  0  0  0  0  0  0  0
    3.9808   -6.7159    0.0000 O   0  0  0  0  0  0  0  0  0  0  0  0
    7.5700   -8.7980    0.0000 C   0  0  2  0  0  0  0  0  0  0  0  0
    8.3155   -9.2188    0.0000 C   0  0  1  0  0  0  0  0  0  0  0  0
    9.0326   -8.8141    0.0000 O   0  0  0  0  0  0  0  0  0  0  0  0
    8.3065  -10.0439    0.0000 C   0  0  1  0  0  0  0  0  0  0  0  0
    9.0140  -10.5019    0.0000 O   0  0  0  0  0  0  0  0  0  0  0  0
    7.5520  -10.4483    0.0000 C   0  0  2  0  0  0  0  0  0  0  0  0
    7.5427  -11.2734    0.0000 O   0  0  0  0  0  0  0  0  0  0  0  0
    6.8439  -10.0280    0.0000 C   0  0  2  0  0  0  0  0  0  0  0  0
    6.8530   -9.2028    0.0000 O   0  0  0  0  0  0  0  0  0  0  0  0
    6.1268  -10.4326    0.0000 C   0  0  0  0  0  0  0  0  0  0  0  0
    6.1177  -11.2576    0.0000 O   0  0  0  0  0  0  0  0  0  0  0  0
  1  2  1  6  0  0  0
  3  1  1  0  0  0  0
 10  1  1  0  0  0  0
  3  4  1  1  0  0  0
  5  3  1  0  0  0  0
 13  4  1  6  0  0  0
  5  6  1  1  0  0  0
  7  5  1  0  0  0  0
  7  8  1  6  0  0  0
  9  7  1  0  0  0  0
 10  9  1  0  0  0  0
  9 11  1  1  0  0  0
 12 11  1  0  0  0  0
 14 13  1  0  0  0  0
 21 13  1  0  0  0  0
 14 15  1  1  0  0  0
 16 14  1  0  0  0  0
 24 15  1  6  0  0  0
 16 17  1  1  0  0  0
 18 16  1  0  0  0  0
 18 19  1  6  0  0  0
 20 18  1  0  0  0  0
 21 20  1  0  0  0  0
 20 22  1  1  0  0  0
 23 22  1  0  0  0  0
 25 24  1  0  0  0  0
 32 24  1  0  0  0  0
 25 26  1  1  0  0  0
 27 25  1  0  0  0  0
 27 28  1  1  0  0  0
 29 27  1  0  0  0  0
 29 30  1  6  0  0  0
 31 29  1  0  0  0  0
 32 31  1  0  0  0  0
 31 33  1  1  0  0  0
 34 33  1  0  0  0  0
 36 35  1  0  0  0  0
 43 35  1  0  0  0  0
 36 37  1  1  0  0  0
 38 36  1  0  0  0  0
 38 39  1  1  0  0  0
 40 38  1  0  0  0  0
 40 41  1  6  0  0  0
 42 40  1  0  0  0  0
 43 42  1  0  0  0  0
 42 44  1  1  0  0  0
 45 44  1  0  0  0  0
 35 26  1  6  0  0  0
M  END
> <ID>
CHEBI:64296

> <NAME>
alpha-D-Man-(1->2)-alpha-D-Man-(1->2)-alpha-D-Man-(1->2)-alpha-D-Man

> <DEFINITION>
α-D-Man-(1→2)-α-D-Man-(1→2)-α-D-Man-(1→2)-D-Man having α-configuration at the reducing end anomeric centre.

> <STAR>
3

> <SYNONYM>
alpha-D-Manp-(1->2)-alpha-D-Manp-(1->2)-alpha-D-Manp-(1->2)-alpha-D-Manp; alpha-D-mannosyl-(1->2)-alpha-D-mannosyl-(1->2)-alpha-D-mannosyl-(1->2)-alpha-D-mannose

> <IUPAC_NAME>
alpha-D-mannopyranosyl-(1->2)-alpha-D-mannopyranosyl-(1->2)-alpha-D-mannopyranosyl-(1->2)-alpha-D-mannopyranose

> <FORMULA>
C24H42O21

> <MASS>
666.57770

> <MONOISOTOPIC_MASS>
666.22186

> <CHARGE>
0

> <SMILES>
OC[C@H]1O[C@H](O)[C@@H](O[C@H]2O[C@H](CO)[C@@H](O)[C@H](O)[C@@H]2O[C@H]2O[C@H](CO)[C@@H](O)[C@H](O)[C@@H]2O[C@H]2O[C@H](CO)[C@@H](O)[C@H](O)[C@@H]2O)[C@@H](O)[C@@H]1O

> <INCHI>
InChI=1S/C24H42O21/c25-1-5-10(30)14(34)18(21(38)39-5)43-23-20(16(36)12(32)7(3-27)41-23)45-24-19(15(35)11(31)8(4-28)42-24)44-22-17(37)13(33)9(29)6(2-26)40-22/h5-38H,1-4H2/t5-,6-,7-,8-,9-,10-,11-,12-,13+,14+,15+,16+,17+,18+,19+,20+,21+,22-,23-,24-/m1/s1

> <INCHIKEY>
RVKKLZMEZUGKOE-YCPSAUHXSA-N

> <REAXYS_REGISTRY_NUMBER>
1614218

> <PUBMED_CITATION>
18788729

$$$$

Marvin  04301214472D          

 12 12  0  0  0  0            999 V2000
   14.2749   -6.6396    0.0000 C   0  0  0  0  0  0  0  0  0  0  0  0
   14.9894   -6.2272    0.0000 C   0  0  0  0  0  0  0  0  0  0  0  0
   15.7038   -6.6396    0.0000 C   0  0  0  0  0  0  0  0  0  0  0  0
   16.4183   -6.2272    0.0000 C   0  0  0  0  0  0  0  0  0  0  0  0
   16.4183   -5.4020    0.0000 O   0  0  0  0  0  0  0  0  0  0  0  0
   17.1327   -6.6395    0.0000 O   0  0  0  0  0  0  0  0  0  0  0  0
   13.5604   -6.2271    0.0000 C   0  0  0  0  0  0  0  0  0  0  0  0
   12.8068   -6.5627    0.0000 S   0  0  0  0  0  0  0  0  0  0  0  0
   13.4742   -5.4066    0.0000 C   0  0  0  0  0  0  0  0  0  0  0  0
   12.2547   -5.9496    0.0000 C   0  0  0  0  0  0  0  0  0  0  0  0
   12.6671   -5.2350    0.0000 C   0  0  0  0  0  0  0  0  0  0  0  0
   14.2749   -7.4646    0.0000 O   0  0  0  0  0  0  0  0  0  0  0  0
  1  2  1  0  0  0  0
  2  3  1  0  0  0  0
  3  4  1  0  0  0  0
  4  5  2  0  0  0  0
  4  6  1  0  0  0  0
  8  7  1  0  0  0  0
  9  7  2  0  0  0  0
 10  8  1  0  0  0  0
 11  9  1  0  0  0  0
 11 10  2  0  0  0  0
  1  7  1  0  0  0  0
  1 12  2  0  0  0  0
M  END
> <ID>
CHEBI:64434

> <NAME>
4-oxo-4-(2-thienyl)butyric acid

> <DEFINITION>
A 4-oxo monocarboxylic acid that is butyric acid bearing oxo and 2-thienyl groups at position 4.

> <STAR>
3

> <SYNONYM>
4-oxo-4-(thien-2-yl)butyric acid; 4-oxo-4-(thien-2-yl)butanoic acid; 4-oxo-4-(2-thiophenyl)butanoic acid; 4-(thien-2-yl)-4-oxobutyric acid; 4-(thien-2-yl)-4-oxobutanoic acid; 4-(2-thiophenyl)-4-oxobutanoic acid; 3-(2-Thenoyl)propionic acid; 3-(2-thenoyl)propanoic acid

> <IUPAC_NAME>
4-oxo-4-(2-thienyl)butanoic acid

> <FORMULA>
C8H8O3S

> <MASS>
184.21200

> <MONOISOTOPIC_MASS>
184.01942

> <CHARGE>
0

> <SMILES>
OC(=O)CCC(=O)c1cccs1

> <INCHI>
InChI=1S/C8H8O3S/c9-6(3-4-8(10)11)7-2-1-5-12-7/h1-2,5H,3-4H2,(H,10,11)

> <INCHIKEY>
ULJMYWHLMLRYSO-UHFFFAOYSA-N

> <CAS_REGISTRY_NUMBER>
4653-08-1

> <REAXYS_REGISTRY_NUMBER>
133870

> <CHEMIDPLUS>
4653-08-1

> <PUBMED_CITATION>
11712905

$$$$

Marvin  09091314122D          

 16 17  0  0  0  0            999 V2000
   11.6223   -4.0988    0.0000 C   0  0  0  0  0  0  0  0  0  0  0  0
   10.9078   -3.6862    0.0000 C   0  0  0  0  0  0  0  0  0  0  0  0
   10.1934   -4.0987    0.0000 C   0  0  0  0  0  0  0  0  0  0  0  0
   10.9078   -2.8612    0.0000 C   0  0  0  0  0  0  0  0  0  0  0  0
    9.4789   -3.6862    0.0000 C   0  0  0  0  0  0  0  0  0  0  0  0
   10.1934   -2.4487    0.0000 C   0  0  0  0  0  0  0  0  0  0  0  0
    9.4789   -2.8612    0.0000 C   0  0  0  0  0  0  0  0  0  0  0  0
   12.3368   -3.6863    0.0000 C   0  0  0  0  0  0  0  0  0  0  0  0
   12.3368   -2.8613    0.0000 O   0  0  0  0  0  0  0  0  0  0  0  0
   13.0512   -4.0989    0.0000 O   0  0  0  0  0  0  0  0  0  0  0  0
   12.0348   -4.8133    0.0000 O   0  0  0  0  0  0  0  0  0  0  0  0
   11.2097   -4.8132    0.0000 C   0  0  0  0  0  0  0  0  0  0  0  0
   11.5453   -5.5669    0.0000 S   0  0  0  0  0  0  0  0  0  0  0  0
   10.3893   -4.8994    0.0000 C   0  0  0  0  0  0  0  0  0  0  0  0
   10.9322   -6.1189    0.0000 C   0  0  0  0  0  0  0  0  0  0  0  0
   10.2177   -5.7065    0.0000 C   0  0  0  0  0  0  0  0  0  0  0  0
  3  2  1  0  0  0  0
  4  2  2  0  0  0  0
  5  3  2  0  0  0  0
  6  4  1  0  0  0  0
  7  5  1  0  0  0  0
  7  6  2  0  0  0  0
  1  2  1  0  0  0  0
  9  8  2  0  0  0  0
 10  8  1  0  0  0  0
  1  8  1  0  0  0  0
 11  1  1  0  0  0  0
 12  1  1  0  0  0  0
 13 12  1  0  0  0  0
 14 12  2  0  0  0  0
 15 13  1  0  0  0  0
 16 14  1  0  0  0  0
 16 15  2  0  0  0  0
M  END
> <ID>
CHEBI:64444

> <NAME>
hydroxy(phenyl)2-thienylacetic acid

> <DEFINITION>
A 2-hydroxy monocarboxylic acid that is phenylacetic acid bearing hydroxy and 2-thenyl substituents at position 2.

> <STAR>
3

> <SYNONYM>
phenyl(2-thienyl)glycolic acid; 2-hydroxy-2-phenyl-2-(2-thienyl)acetic acid; 2-hydroxy-2-(2-thenyl)phenylacetic acid

> <IUPAC_NAME>
hydroxy(phenyl)2-thienylacetic acid

> <FORMULA>
C12H10O3S

> <MASS>
234.27100

> <MONOISOTOPIC_MASS>
234.03507

> <CHARGE>
0

> <SMILES>
OC(=O)C(O)(c1ccccc1)c1cccs1

> <INCHI>
InChI=1S/C12H10O3S/c13-11(14)12(15,10-7-4-8-16-10)9-5-2-1-3-6-9/h1-8,15H,(H,13,14)

> <INCHIKEY>
BIHFCPRVAAVAPP-UHFFFAOYSA-N

> <REAXYS_REGISTRY_NUMBER>
188636

> <PUBMED_CITATION>
11712905

$$$$

Marvin  05081211522D          

 23 24  0  0  1  0            999 V2000
    8.1900   -6.7366    0.0000 C   0  0  2  0  0  0  0  0  0  0  0  0
    8.1900   -5.9116    0.0000 O   0  0  0  0  0  0  0  0  0  0  0  0
    8.9061   -7.1462    0.0000 C   0  0  2  0  0  0  0  0  0  0  0  0
    9.6345   -6.7237    0.0000 O   0  0  0  0  0  0  0  0  0  0  0  0
    8.9061   -7.9712    0.0000 C   0  0  1  0  0  0  0  0  0  0  0  0
    9.6222   -8.3809    0.0000 O   0  0  0  0  0  0  0  0  0  0  0  0
    8.2024   -8.3794    0.0000 C   0  0  1  0  0  0  0  0  0  0  0  0
    8.2024   -9.2044    0.0000 O   0  0  0  0  0  0  0  0  0  0  0  0
    7.4862   -7.9697    0.0000 C   0  0  2  0  0  0  0  0  0  0  0  0
    7.4862   -7.1447    0.0000 O   0  0  0  0  0  0  0  0  0  0  0  0
    6.7702   -8.3851    0.0000 C   0  0  0  0  0  0  0  0  0  0  0  0
    6.7825   -9.2029    0.0000 O   0  0  0  0  0  0  0  0  0  0  0  0
    7.4616   -4.6641    0.0000 C   0  0  1  0  0  0  0  0  0  0  0  0
    8.1777   -4.2544    0.0000 O   0  0  0  0  0  0  0  0  0  0  0  0
    7.4616   -5.4891    0.0000 C   0  0  1  0  0  0  0  0  0  0  0  0
    6.7455   -5.8987    0.0000 C   0  0  1  0  0  0  0  0  0  0  0  0
    6.7455   -6.7237    0.0000 O   0  0  0  0  0  0  0  0  0  0  0  0
    6.0417   -5.4905    0.0000 C   0  0  1  0  0  0  0  0  0  0  0  0
    5.3256   -5.9002    0.0000 O   0  0  0  0  0  0  0  0  0  0  0  0
    6.0417   -4.6655    0.0000 C   0  0  2  0  0  0  0  0  0  0  0  0
    6.7578   -4.2559    0.0000 O   0  0  0  0  0  0  0  0  0  0  0  0
    5.3256   -4.2502    0.0000 C   0  0  0  0  0  0  0  0  0  0  0  0
    4.6218   -4.6670    0.0000 O   0  0  0  0  0  0  0  0  0  0  0  0
  1  2  1  6  0  0  0
  3  1  1  0  0  0  0
 10  1  1  0  0  0  0
  3  4  1  6  0  0  0
  5  3  1  0  0  0  0
  5  6  1  1  0  0  0
  7  5  1  0  0  0  0
  7  8  1  1  0  0  0
  9  7  1  0  0  0  0
 10  9  1  0  0  0  0
  9 11  1  1  0  0  0
 12 11  1  0  0  0  0
 13 14  1  1  0  0  0
 15 13  1  0  0  0  0
 21 13  1  0  0  0  0
 15  2  1  6  0  0  0
 16 15  1  0  0  0  0
 16 17  1  1  0  0  0
 18 16  1  0  0  0  0
 18 19  1  1  0  0  0
 20 18  1  0  0  0  0
 21 20  1  0  0  0  0
 20 22  1  1  0  0  0
 23 22  1  0  0  0  0
M  END
> <ID>
CHEBI:64527

> <NAME>
alpha-D-galactosyl-(1->2)-beta-D-galactose

> <DEFINITION>
An α-D-galactosyl-(1→2)-D-galactose in which the reducing end anomeric centre has β-configuration.

> <STAR>
3

> <SYNONYM>
Galalpha1-2Galbeta; Gala1-2Galb; alpha-D-Galp-(1->2)-beta-D-Galp; alpha-D-Gal-(1->2)-beta-D-Gal; 2-O-alpha-D-galactopyranosyl-beta-D-galactopyranose

> <IUPAC_NAME>
alpha-D-galactopyranosyl-(1->2)-beta-D-galactopyranose

> <FORMULA>
C12H22O11

> <MASS>
342.29650

> <MONOISOTOPIC_MASS>
342.11621

> <CHARGE>
0

> <SMILES>
OC[C@H]1O[C@@H](O)[C@H](O[C@H]2O[C@H](CO)[C@H](O)[C@H](O)[C@H]2O)[C@@H](O)[C@H]1O

> <INCHI>
InChI=1S/C12H22O11/c13-1-3-6(16)8(18)10(11(20)21-3)23-12-9(19)7(17)5(15)4(2-14)22-12/h3-20H,1-2H2/t3-,4-,5+,6+,7+,8+,9-,10-,11-,12-/m1/s1

> <INCHIKEY>
HIWPGCMGAMJNRG-WSWWMNSNSA-N

> <REAXYS_REGISTRY_NUMBER>
4845052

> <PUBMED_CITATION>
12626386; 19443021; 25568069; 31537530

$$$$

Marvin  05081212232D          

 26 27  0  0  1  0            999 V2000
    8.5096   -6.1876    0.0000 C   0  0  2  0  0  0  0  0  0  0  0  0
    8.5096   -7.0126    0.0000 C   0  0  1  0  0  0  0  0  0  0  0  0
    7.7951   -5.7751    0.0000 O   0  0  0  0  0  0  0  0  0  0  0  0
    7.7951   -7.4251    0.0000 C   0  0  2  0  0  0  0  0  0  0  0  0
    7.0807   -6.1876    0.0000 C   0  0  1  0  0  0  0  0  0  0  0  0
    7.0807   -7.0126    0.0000 C   0  0  2  0  0  0  0  0  0  0  0  0
    9.2241   -7.4251    0.0000 O   0  0  0  0  0  0  0  0  0  0  0  0
    7.7951   -8.2501    0.0000 O   0  0  0  0  0  0  0  0  0  0  0  0
    6.3663   -7.4250    0.0000 O   0  0  0  0  0  0  0  0  0  0  0  0
    6.3663   -5.7751    0.0000 C   0  0  0  0  0  0  0  0  0  0  0  0
    5.6518   -6.1876    0.0000 O   0  0  0  0  0  0  0  0  0  0  0  0
    9.2241   -5.7751    0.0000 O   0  0  0  0  0  0  0  0  0  0  0  0
    7.7953   -4.9500    0.0000 O   0  0  0  0  0  0  0  0  0  0  0  0
    9.9387   -3.7126    0.0000 C   0  0  1  0  0  0  0  0  0  0  0  0
    9.9387   -4.5375    0.0000 C   0  0  1  0  0  0  0  0  0  0  0  0
    9.2241   -3.3001    0.0000 O   0  0  0  0  0  0  0  0  0  0  0  0
    9.2241   -4.9500    0.0000 C   0  0  2  0  0  0  0  0  0  0  0  0
    8.5097   -3.7126    0.0000 C   0  0  1  0  0  0  0  0  0  0  0  0
    8.5097   -4.5375    0.0000 C   0  0  2  0  0  0  0  0  0  0  0  0
   10.6531   -3.3001    0.0000 O   0  0  0  0  0  0  0  0  0  0  0  0
   10.6531   -4.9502    0.0000 N   0  0  0  0  0  0  0  0  0  0  0  0
    7.7953   -3.3001    0.0000 C   0  0  0  0  0  0  0  0  0  0  0  0
    7.0807   -3.7127    0.0000 O   0  0  0  0  0  0  0  0  0  0  0  0
   10.6531   -5.7751    0.0000 C   0  0  0  0  0  0  0  0  0  0  0  0
   11.3675   -6.1876    0.0000 O   0  0  0  0  0  0  0  0  0  0  0  0
    9.9386   -6.1876    0.0000 C   0  0  0  0  0  0  0  0  0  0  0  0
  1  2  1  0  0  0  0
  1  3  1  0  0  0  0
  2  4  1  0  0  0  0
  3  5  1  0  0  0  0
  4  6  1  0  0  0  0
  5  6  1  0  0  0  0
  2  7  1  6  0  0  0
  4  8  1  1  0  0  0
  6  9  1  1  0  0  0
  5 10  1  1  0  0  0
 11 10  1  0  0  0  0
  1 12  1  6  0  0  0
 14 15  1  0  0  0  0
 14 16  1  0  0  0  0
 15 17  1  0  0  0  0
 16 18  1  0  0  0  0
 17 19  1  0  0  0  0
 18 19  1  0  0  0  0
 14 20  1  1  0  0  0
 15 21  1  6  0  0  0
 17 12  1  1  0  0  0
 19 13  1  1  0  0  0
 18 22  1  1  0  0  0
 23 22  1  0  0  0  0
 25 24  2  0  0  0  0
 26 24  1  0  0  0  0
 21 24  1  0  0  0  0
M  END
> <ID>
CHEBI:64528

> <NAME>
alpha-D-Galp-(1->3)-beta-D-GalpNAc

> <DEFINITION>
An α-D-Galp-(1→3)-D-GalpNAc in which the anomeric centre at the reducing end has β-configuration.

> <STAR>
3

> <SYNONYM>
Galalpha1-3GalNAcbeta; Galalpha1-3-GalNAcbeta; Gala1-3GalNAcb; Gal-alpha1,3-GalNAc-beta; alpha-Gal-(1->3)-beta-GalNAc; alpha-D-Gal-(1->3)-beta-D-GalNAc; 2-acetamido-2-deoxy-3-O-alpha-D-galactopyranosyl-beta-D-galactopyranose; 2-(acetylamino)-2-deoxy-3-O-alpha-D-galactopyranosyl-beta-D-galactopyranose

> <IUPAC_NAME>
alpha-D-galactopyranosyl-(1->3)-2-acetamido-2-deoxy-beta-D-galactopyranose

> <FORMULA>
C14H25NO11

> <MASS>
383.34840

> <MONOISOTOPIC_MASS>
383.14276

> <CHARGE>
0

> <SMILES>
CC(=O)N[C@H]1[C@H](O)O[C@H](CO)[C@H](O)[C@@H]1O[C@H]1O[C@H](CO)[C@H](O)[C@H](O)[C@H]1O

> <INCHI>
InChI=1S/C14H25NO11/c1-4(18)15-7-12(9(20)6(3-17)24-13(7)23)26-14-11(22)10(21)8(19)5(2-16)25-14/h5-14,16-17,19-23H,2-3H2,1H3,(H,15,18)/t5-,6-,7-,8+,9+,10+,11-,12-,13-,14-/m1/s1

> <INCHIKEY>
HMQPEDMEOBLSQB-MDCRHDATSA-N

> <PUBMED_CITATION>
12626386; 19443021; 25568069; 31537530

$$$$

Marvin  05081213312D          

 29 30  0  0  1  0            999 V2000
    7.5450   -5.5856    0.0000 C   0  0  2  0  0  0  0  0  0  0  0  0
    7.5450   -6.4106    0.0000 C   0  0  1  0  0  0  0  0  0  0  0  0
    6.8305   -5.1731    0.0000 O   0  0  0  0  0  0  0  0  0  0  0  0
    6.8305   -6.8231    0.0000 C   0  0  2  0  0  0  0  0  0  0  0  0
    6.1160   -5.5856    0.0000 C   0  0  1  0  0  0  0  0  0  0  0  0
    6.1160   -6.4106    0.0000 C   0  0  2  0  0  0  0  0  0  0  0  0
    8.2594   -5.1731    0.0000 O   0  0  0  0  0  0  0  0  0  0  0  0
    8.2594   -6.8231    0.0000 N   0  0  0  0  0  0  0  0  0  0  0  0
    6.8304   -7.6481    0.0000 O   0  0  0  0  0  0  0  0  0  0  0  0
    5.4016   -6.8231    0.0000 O   0  0  0  0  0  0  0  0  0  0  0  0
    5.4016   -5.1731    0.0000 C   0  0  0  0  0  0  0  0  0  0  0  0
    4.6872   -5.5856    0.0000 O   0  0  0  0  0  0  0  0  0  0  0  0
   10.4028   -3.9356    0.0000 C   0  0  1  0  0  0  0  0  0  0  0  0
   10.4028   -4.7606    0.0000 C   0  0  1  0  0  0  0  0  0  0  0  0
    9.6883   -3.5231    0.0000 O   0  0  0  0  0  0  0  0  0  0  0  0
    9.6883   -5.1731    0.0000 C   0  0  2  0  0  0  0  0  0  0  0  0
    8.9739   -3.9356    0.0000 C   0  0  1  0  0  0  0  0  0  0  0  0
    8.9739   -4.7606    0.0000 C   0  0  1  0  0  0  0  0  0  0  0  0
   11.1173   -3.5231    0.0000 O   0  0  0  0  0  0  0  0  0  0  0  0
   11.1173   -5.1731    0.0000 N   0  0  0  0  0  0  0  0  0  0  0  0
    9.6883   -5.9981    0.0000 O   0  0  0  0  0  0  0  0  0  0  0  0
    8.2594   -3.5231    0.0000 C   0  0  0  0  0  0  0  0  0  0  0  0
    7.5450   -3.9356    0.0000 O   0  0  0  0  0  0  0  0  0  0  0  0
   11.1173   -5.9981    0.0000 C   0  0  0  0  0  0  0  0  0  0  0  0
   11.8317   -6.4106    0.0000 O   0  0  0  0  0  0  0  0  0  0  0  0
   10.4028   -6.4106    0.0000 C   0  0  0  0  0  0  0  0  0  0  0  0
    8.2594   -7.6481    0.0000 C   0  0  0  0  0  0  0  0  0  0  0  0
    8.9738   -8.0606    0.0000 O   0  0  0  0  0  0  0  0  0  0  0  0
    7.5449   -8.0606    0.0000 C   0  0  0  0  0  0  0  0  0  0  0  0
  1  2  1  0  0  0  0
  1  3  1  0  0  0  0
  2  4  1  0  0  0  0
  3  5  1  0  0  0  0
  4  6  1  0  0  0  0
  5  6  1  0  0  0  0
  1  7  1  6  0  0  0
  2  8  1  6  0  0  0
  4  9  1  1  0  0  0
  6 10  1  1  0  0  0
  5 11  1  1  0  0  0
 12 11  1  0  0  0  0
 13 14  1  0  0  0  0
 13 15  1  0  0  0  0
 14 16  1  0  0  0  0
 15 17  1  0  0  0  0
 16 18  1  0  0  0  0
 17 18  1  0  0  0  0
 13 19  1  1  0  0  0
 14 20  1  6  0  0  0
 16 21  1  1  0  0  0
 18  7  1  6  0  0  0
 17 22  1  1  0  0  0
 23 22  1  0  0  0  0
 25 24  2  0  0  0  0
 26 24  1  0  0  0  0
 20 24  1  0  0  0  0
 28 27  2  0  0  0  0
 29 27  1  0  0  0  0
  8 27  1  0  0  0  0
M  END
> <ID>
CHEBI:64529

> <NAME>
alpha-D-GalpNAc-(1->4)-beta-D-GlcpNAc

> <DEFINITION>
An α-D-GalpNAc-(1→4)-D-GlcpNAc in which the reducing end anomeric centre has β-configuration.

> <STAR>
3

> <SYNONYM>
N-acetyl-alpha-D-galactosaminyl-(1->4)-N-acetyl-beta-D-glucosamine; GalNAcalpha1-4GlcNAcbeta; alpha-D-N-acetylgalactosaminyl-(1->4)-beta-D-N-acetylglucosamine; alpha-D-GalNAc-(1->4)-beta-D-GlcNAc; 2-acetamido-4-O-(2-acetamido-2-deoxy-alpha-D-galactopyranosyl)-2-deoxy-beta-D-glucopyranose; 2-(acetylamino)-2-deoxy-alpha-D-galactopyranosyl-(1->4)-2-(acetylamino)-2-deoxy-beta-D-glucopyranose

> <IUPAC_NAME>
2-acetamido-2-deoxy-alpha-D-galactopyranosyl-(1->4)-2-acetamido-2-deoxy-beta-D-glucopyranose

> <FORMULA>
C16H28N2O11

> <MASS>
424.40030

> <MONOISOTOPIC_MASS>
424.16931

> <CHARGE>
0

> <SMILES>
CC(=O)N[C@H]1[C@H](O)O[C@H](CO)[C@@H](O[C@H]2O[C@H](CO)[C@H](O)[C@H](O)[C@H]2NC(C)=O)[C@@H]1O

> <INCHI>
InChI=1S/C16H28N2O11/c1-5(21)17-9-13(25)14(8(4-20)27-15(9)26)29-16-10(18-6(2)22)12(24)11(23)7(3-19)28-16/h7-16,19-20,23-26H,3-4H2,1-2H3,(H,17,21)(H,18,22)/t7-,8-,9-,10-,11+,12-,13-,14-,15-,16-/m1/s1

> <INCHIKEY>
CDOJPCSDOXYJJF-DIVHEFPVSA-N

> <PUBMED_CITATION>
12626386

$$$$

Marvin  05171213252D          

 47 50  0  0  1  0            999 V2000
   12.2068  -25.1709    0.0000 C   0  0  1  0  0  0  0  0  0  0  0  0
   12.2068  -25.9959    0.0000 C   0  0  1  0  0  0  0  0  0  0  0  0
   11.4924  -24.7586    0.0000 O   0  0  0  0  0  0  0  0  0  0  0  0
   11.4924  -26.4086    0.0000 C   0  0  2  0  0  0  0  0  0  0  0  0
   10.7780  -25.1709    0.0000 C   0  0  1  0  0  0  0  0  0  0  0  0
   10.7780  -25.9959    0.0000 C   0  0  2  0  0  0  0  0  0  0  0  0
   12.9214  -24.7586    0.0000 O   0  0  0  0  0  0  0  0  0  0  0  0
   12.9214  -26.4086    0.0000 O   0  0  0  0  0  0  0  0  0  0  0  0
   11.4924  -27.2334    0.0000 O   0  0  0  0  0  0  0  0  0  0  0  0
   10.0633  -26.4086    0.0000 O   0  0  0  0  0  0  0  0  0  0  0  0
   10.0633  -24.7586    0.0000 C   0  0  0  0  0  0  0  0  0  0  0  0
    9.3492  -25.1709    0.0000 O   0  0  0  0  0  0  0  0  0  0  0  0
   10.7780  -27.6459    0.0000 C   0  0  2  0  0  0  0  0  0  0  0  0
   10.7780  -28.4709    0.0000 C   0  0  1  0  0  0  0  0  0  0  0  0
   10.0633  -27.2334    0.0000 O   0  0  0  0  0  0  0  0  0  0  0  0
   10.0633  -28.8834    0.0000 C   0  0  2  0  0  0  0  0  0  0  0  0
    9.3492  -27.6459    0.0000 C   0  0  1  0  0  0  0  0  0  0  0  0
    9.3492  -28.4709    0.0000 C   0  0  2  0  0  0  0  0  0  0  0  0
   11.4924  -28.8834    0.0000 O   0  0  0  0  0  0  0  0  0  0  0  0
   10.0633  -29.7084    0.0000 O   0  0  0  0  0  0  0  0  0  0  0  0
    8.6345  -28.8834    0.0000 O   0  0  0  0  0  0  0  0  0  0  0  0
    8.6345  -27.2334    0.0000 C   0  0  0  0  0  0  0  0  0  0  0  0
    7.9201  -27.6459    0.0000 O   0  0  0  0  0  0  0  0  0  0  0  0
   13.6359  -27.6459    0.0000 O   0  0  0  0  0  0  0  0  0  0  0  0
   14.3503  -28.0584    0.0000 C   0  0  2  0  0  0  0  0  0  0  0  0
   13.6359  -26.8209    0.0000 C   0  0  2  0  0  0  0  0  0  0  0  0
   14.3503  -26.4084    0.0000 C   0  0  2  0  0  0  0  0  0  0  0  0
   15.0647  -26.8209    0.0000 C   0  0  1  0  0  0  0  0  0  0  0  0
   15.0647  -27.6459    0.0000 C   0  0  2  0  0  0  0  0  0  0  0  0
   14.3505  -25.5836    0.0000 O   0  0  0  0  0  0  0  0  0  0  0  0
   15.7791  -26.4086    0.0000 O   0  0  0  0  0  0  0  0  0  0  0  0
   15.7791  -28.0584    0.0000 O   0  0  0  0  0  0  0  0  0  0  0  0
   14.3503  -28.8834    0.0000 C   0  0  0  0  0  0  0  0  0  0  0  0
   14.3505  -22.2836    0.0000 O   0  0  0  0  0  0  0  0  0  0  0  0
   13.6359  -22.6961    0.0000 C   0  0  0  0  0  0  0  0  0  0  0  0
   13.6359  -23.5211    0.0000 C   0  0  1  0  0  0  0  0  0  0  0  0
   12.9214  -22.2836    0.0000 O   0  0  0  0  0  0  0  0  0  0  0  0
   12.9214  -23.9336    0.0000 C   0  0  2  0  0  0  0  0  0  0  0  0
   12.2071  -22.6961    0.0000 C   0  0  1  0  0  0  0  0  0  0  0  0
   12.2071  -23.5211    0.0000 C   0  0  1  0  0  0  0  0  0  0  0  0
   14.3505  -23.9336    0.0000 N   0  0  0  0  0  0  0  0  0  0  0  0
   11.4927  -23.9336    0.0000 O   0  0  0  0  0  0  0  0  0  0  0  0
   11.4927  -22.2836    0.0000 C   0  0  0  0  0  0  0  0  0  0  0  0
   10.7780  -22.6961    0.0000 O   0  0  0  0  0  0  0  0  0  0  0  0
   15.0647  -23.5209    0.0000 C   0  0  0  0  0  0  0  0  0  0  0  0
   15.0647  -22.6961    0.0000 O   0  0  0  0  0  0  0  0  0  0  0  0
   15.7793  -23.9336    0.0000 C   0  0  0  0  0  0  0  0  0  0  0  0
  1  2  1  0  0  0  0
  1  3  1  0  0  0  0
  2  4  1  0  0  0  0
  3  5  1  0  0  0  0
  4  6  1  0  0  0  0
  5  6  1  0  0  0  0
  1  7  1  1  0  0  0
  2  8  1  6  0  0  0
  4  9  1  1  0  0  0
  6 10  1  1  0  0  0
  5 11  1  1  0  0  0
 12 11  1  0  0  0  0
 13 14  1  0  0  0  0
 13 15  1  0  0  0  0
 14 16  1  0  0  0  0
 15 17  1  0  0  0  0
 16 18  1  0  0  0  0
 17 18  1  0  0  0  0
 13  9  1  6  0  0  0
 14 19  1  6  0  0  0
 16 20  1  1  0  0  0
 18 21  1  1  0  0  0
 17 22  1  1  0  0  0
 23 22  1  0  0  0  0
 25 24  1  0  0  0  0
 26 24  1  0  0  0  0
 26  8  1  1  0  0  0
 26 27  1  0  0  0  0
 27 30  1  1  0  0  0
 27 28  1  0  0  0  0
 28 31  1  6  0  0  0
 28 29  1  0  0  0  0
 29 25  1  0  0  0  0
 29 32  1  6  0  0  0
 25 33  1  6  0  0  0
 35 36  1  0  0  0  0
 35 37  1  0  0  0  0
 36 38  1  0  0  0  0
 37 39  1  0  0  0  0
 38 40  1  0  0  0  0
 39 40  1  0  0  0  0
 35 34  1  0  0  0  0
 36 41  1  6  0  0  0
 38  7  1  1  0  0  0
 40 42  1  6  0  0  0
 39 43  1  1  0  0  0
 44 43  1  0  0  0  0
 46 45  2  0  0  0  0
 47 45  1  0  0  0  0
 41 45  1  0  0  0  0
M  END
> <ID>
CHEBI:64630

> <NAME>
alpha-D-Galp-(1->3)-[alpha-L-Fucp-(1->2)]-beta-D-Galp-(1->3)-D-GlcpNAc

> <DEFINITION>
A branched amino tetrasaccharide that consists of the linear trisaccharide α-D-galactosyl-(1→3)-β-D-galactosyl-(1→3)-N-acetyl-D-glucosamine having an α-L-fucosyl residue attached at the 2-position of the central galactose.

> <STAR>
3

> <SYNONYM>
Galalpha1-3(Fucalpha1-2)Gal1-3GlcNAc; Fucalpha1-2(Galalpha1-3)Galbeta1-3GlcNAc; alphaGal1-3(alphaFuc1-2)betaGal1-3GlcNAc; alphaFuc1-2(alphaGal1-3)betaGal1-3GlcNAc; alpha-L-Fucp-(1->2)-[alpha-D-Galp-(1->3)]-beta-D-Galp-(1->3)-D-GlcpNAc; alpha-L-fucosyl-(1->2)-[alpha-D-galactosyl-(1->3)]-beta-D-galactosyl-(1->3)-N-acetyl-D-glucosamine; alpha-L-Fuc-(1->2)-[alpha-D-Gal-(1->3)]-beta-D-Gal-(1->3)-D-GlcNAc; alpha-D-galactosyl-(1->3)-[alpha-L-fucosyl-(1->2)]-beta-D-galactosyl-(1->3)-N-acetyl-D-glucosamine; alpha-D-Gal-(1->3)-[alpha-L-Fuc-(1->2)]-beta-D-Gal-(1->3)-D-GlcNAc; 6-deoxy-alpha-L-galactopyranosyl-(1->2)-[alpha-D-galactopyranosyl-(1->3)]-beta-D-galactopyranosyl-(1->3)-2-acetamido-2-deoxy-D-glucopyranose

> <FORMULA>
C26H45NO20

> <MASS>
691.63020

> <MONOISOTOPIC_MASS>
691.25349

> <CHARGE>
0

> <SMILES>
C[C@@H]1O[C@@H](O[C@H]2[C@@H](O[C@H](CO)[C@H](O)[C@@H]2O[C@H]2O[C@H](CO)[C@H](O)[C@H](O)[C@H]2O)O[C@H]2[C@H](O)[C@@H](CO)OC(O)[C@@H]2NC(C)=O)[C@@H](O)[C@H](O)[C@@H]1O

> <INCHI>
InChI=1S/C26H45NO20/c1-6-12(32)16(36)18(38)24(41-6)47-22-21(46-25-19(39)17(37)13(33)8(3-28)43-25)15(35)10(5-30)44-26(22)45-20-11(27-7(2)31)23(40)42-9(4-29)14(20)34/h6,8-26,28-30,32-40H,3-5H2,1-2H3,(H,27,31)/t6-,8+,9+,10+,11+,12+,13-,14+,15-,16+,17-,18-,19+,20+,21-,22+,23?,24-,25+,26-/m0/s1

> <INCHIKEY>
UTKJZGYXPDLBQS-HFLOBWHFSA-N

> <PUBMED_CITATION>
19695255; 21981750

$$$$

Marvin  05301209252D          

 15 16  0  0  0  0            999 V2000
   11.1173   -6.7981    0.0000 C   0  0  0  0  0  0  0  0  0  0  0  0
   10.5003   -6.2478    0.0000 S   0  0  0  0  0  0  0  0  0  0  0  0
    9.7874   -6.6647    0.0000 C   0  0  0  0  0  0  0  0  0  0  0  0
   11.9302   -6.6272    0.0000 C   0  0  0  0  0  0  0  0  0  0  0  0
    9.0662   -6.2520    0.0000 C   0  0  0  0  0  0  0  0  0  0  0  0
   10.7879   -7.5527    0.0000 C   0  0  0  0  0  0  0  0  0  0  0  0
    9.9667   -7.4734    0.0000 C   0  0  0  0  0  0  0  0  0  0  0  0
    9.0621   -5.4266    0.0000 O   0  0  0  0  0  0  0  0  0  0  0  0
    8.3408   -6.6730    0.0000 C   0  0  0  0  0  0  0  0  0  0  0  0
   12.1929   -5.8518    0.0000 C   0  0  0  0  0  0  0  0  0  0  0  0
    8.3408   -7.5027    0.0000 C   0  0  0  0  0  0  0  0  0  0  0  0
    7.6280   -6.2603    0.0000 C   0  0  0  0  0  0  0  0  0  0  0  0
    7.6280   -7.9154    0.0000 C   0  0  0  0  0  0  0  0  0  0  0  0
    6.9151   -6.6730    0.0000 C   0  0  0  0  0  0  0  0  0  0  0  0
    6.9151   -7.5027    0.0000 C   0  0  0  0  0  0  0  0  0  0  0  0
  2  1  1  0  0  0  0
  3  2  1  0  0  0  0
  4  1  1  0  0  0  0
  5  3  1  0  0  0  0
  6  1  2  0  0  0  0
  7  6  1  0  0  0  0
  8  5  2  0  0  0  0
  9  5  1  0  0  0  0
 10  4  1  0  0  0  0
 11  9  1  0  0  0  0
 12  9  2  0  0  0  0
 13 11  2  0  0  0  0
 14 12  1  0  0  0  0
 15 14  2  0  0  0  0
  7  3  2  0  0  0  0
 13 15  1  0  0  0  0
M  END
> <ID>
CHEBI:64706

> <NAME>
decarboxytiaprofenic acid

> <DEFINITION>
A thiophene substituted at C-2 by benzoyl and at C-4 by an ethyl group.

> <STAR>
3

> <SYNONYM>
5-ethyl-2-benzoylthiophene

> <IUPAC_NAME>
(5-ethyl-2-thienyl)(phenyl)methanone

> <FORMULA>
C13H12OS

> <MASS>
216.29900

> <MONOISOTOPIC_MASS>
216.06089

> <CHARGE>
0

> <SMILES>
CCc1ccc(s1)C(=O)c1ccccc1

> <INCHI>
InChI=1S/C13H12OS/c1-2-11-8-9-12(15-11)13(14)10-6-4-3-5-7-10/h3-9H,2H2,1H3

> <INCHIKEY>
KRUFIFKRFHMKHL-UHFFFAOYSA-N

> <REAXYS_REGISTRY_NUMBER>
151561

> <PUBMED_CITATION>
11195850; 11332030; 11712905; 20650119; 7870764; 9337613

$$$$

Marvin  05301210082D          

 15 16  0  0  0  0            999 V2000
    6.9661   -4.5587    0.0000 C   0  0  0  0  0  0  0  0  0  0  0  0
    7.6846   -4.1452    0.0000 C   0  0  0  0  0  0  0  0  0  0  0  0
    6.2543   -4.2030    0.0000 S   0  0  0  0  0  0  0  0  0  0  0  0
   10.5559   -5.7929    0.0000 C   0  0  0  0  0  0  0  0  0  0  0  0
    8.4109   -4.5593    0.0000 C   0  0  0  0  0  0  0  0  0  0  0  0
    9.8332   -5.3766    0.0000 C   0  0  0  0  0  0  0  0  0  0  0  0
    6.9024   -5.3703    0.0000 C   0  0  0  0  0  0  0  0  0  0  0  0
    5.6844   -4.8084    0.0000 C   0  0  0  0  0  0  0  0  0  0  0  0
    7.6846   -3.3224    0.0000 O   0  0  0  0  0  0  0  0  0  0  0  0
    6.0806   -5.5132    0.0000 C   0  0  0  0  0  0  0  0  0  0  0  0
    9.1260   -4.1479    0.0000 C   0  0  0  0  0  0  0  0  0  0  0  0
    8.4079   -5.3933    0.0000 C   0  0  0  0  0  0  0  0  0  0  0  0
    9.8379   -4.5703    0.0000 C   0  0  0  0  0  0  0  0  0  0  0  0
    9.1182   -5.7881    0.0000 C   0  0  0  0  0  0  0  0  0  0  0  0
   11.2672   -5.3835    0.0000 C   0  0  0  0  0  0  0  0  0  0  0  0
  2  1  1  0  0  0  0
  3  1  1  0  0  0  0
  4  6  1  0  0  0  0
  5  2  1  0  0  0  0
  6 14  2  0  0  0  0
  7  1  2  0  0  0  0
  8  3  1  0  0  0  0
  9  2  2  0  0  0  0
 10  7  1  0  0  0  0
 11  5  1  0  0  0  0
 12  5  2  0  0  0  0
 13 11  2  0  0  0  0
 14 12  1  0  0  0  0
 15  4  1  0  0  0  0
  8 10  2  0  0  0  0
  6 13  1  0  0  0  0
M  END
> <ID>
CHEBI:64707

> <NAME>
decarboxysuprofen

> <DEFINITION>
A thiophene substituted at C-2 by a 4-ethylbenzoyl group.

> <STAR>
3

> <SYNONYM>
p-ethylphenyl 2-thienyl ketone; 4-Ethylphenyl 2-thienyl ketone; 2-(p-ethylbenzoyl)thiophene

> <IUPAC_NAME>
(4-ethylphenyl)(2-thienyl)methanone

> <FORMULA>
C13H12OS

> <MASS>
216.29900

> <MONOISOTOPIC_MASS>
216.06089

> <CHARGE>
0

> <SMILES>
CCc1ccc(cc1)C(=O)c1cccs1

> <INCHI>
InChI=1S/C13H12OS/c1-2-10-5-7-11(8-6-10)13(14)12-4-3-9-15-12/h3-9H,2H2,1H3

> <INCHIKEY>
GODQIIKZEJTEPS-UHFFFAOYSA-N

> <CAS_REGISTRY_NUMBER>
52779-81-4

> <REAXYS_REGISTRY_NUMBER>
1638931

> <CHEMIDPLUS>
52779-81-4

> <PUBMED_CITATION>
11195850; 11712905

$$$$

Marvin  06201210412D          

 19 21  0  0  0  0            999 V2000
    3.1103   -6.2242    0.0000 C   0  0  0  0  0  0  0  0  0  0  0  0
    3.1103   -7.0492    0.0000 C   0  0  0  0  0  0  0  0  0  0  0  0
    3.8116   -7.4616    0.0000 C   0  0  0  0  0  0  0  0  0  0  0  0
    4.5540   -7.0492    0.0000 C   0  0  0  0  0  0  0  0  0  0  0  0
    4.5540   -6.2242    0.0000 C   0  0  0  0  0  0  0  0  0  0  0  0
    3.8116   -5.8117    0.0000 C   0  0  0  0  0  0  0  0  0  0  0  0
    5.2552   -7.4616    0.0000 O   0  0  0  0  0  0  0  0  0  0  0  0
    5.9565   -7.0492    0.0000 C   0  0  0  0  0  0  0  0  0  0  0  0
    5.9565   -6.2242    0.0000 C   0  0  0  0  0  0  0  0  0  0  0  0
    5.2552   -5.8117    0.0000 C   0  0  0  0  0  0  0  0  0  0  0  0
    6.6990   -5.8117    0.0000 C   0  0  0  0  0  0  0  0  0  0  0  0
    6.6990   -4.9867    0.0000 C   0  0  0  0  0  0  0  0  0  0  0  0
    5.9565   -4.5742    0.0000 C   0  0  0  0  0  0  0  0  0  0  0  0
    5.2552   -4.9867    0.0000 C   0  0  0  0  0  0  0  0  0  0  0  0
    3.8116   -4.9867    0.0000 C   0  0  0  0  0  0  0  0  0  0  0  0
    2.4091   -7.4616    0.0000 O   0  0  0  0  0  0  0  0  0  0  0  0
    6.6577   -7.4616    0.0000 O   0  0  0  0  0  0  0  0  0  0  0  0
    7.4002   -6.2242    0.0000 O   0  0  0  0  0  0  0  0  0  0  0  0
    5.9565   -3.7492    0.0000 O   0  0  0  0  0  0  0  0  0  0  0  0
  1  2  2  0  0  0  0
  2  3  1  0  0  0  0
  3  4  2  0  0  0  0
  4  5  1  0  0  0  0
  5  6  2  0  0  0  0
  1  6  1  0  0  0  0
  4  7  1  0  0  0  0
  7  8  1  0  0  0  0
  8  9  1  0  0  0  0
  9 10  1  0  0  0  0
  5 10  1  0  0  0  0
  9 11  2  0  0  0  0
 11 12  1  0  0  0  0
 12 13  2  0  0  0  0
 13 14  1  0  0  0  0
 10 14  2  0  0  0  0
  6 15  1  0  0  0  0
  2 16  1  0  0  0  0
  8 17  2  0  0  0  0
 11 18  1  0  0  0  0
 13 19  1  0  0  0  0
M  END
> <ID>
CHEBI:64983

> <NAME>
alternariol

> <DEFINITION>
A benzochromenone that is 6H-benzo[c]chromen-6-one which is substituted by a methyl group at position 1 and by hydroxy groups at positions 3, 7, and 9. It is the most important mycotoxin produced by the black mould Alternaria species, which are the most common mycoflora infecting small grain cereals worldwide.

> <STAR>
3

> <SYNONYM>
AOH; alternariol; 3,4,4'-trihydroxy-6'-methyl-2-biphenylcarboxylic acid gamma-lactone; 3,4',5-trihydroxy-6'-methyldibenzo-alpha-pyrone

> <IUPAC_NAME>
3,7,9-trihydroxy-1-methyl-6H-benzo[c]chromen-6-one

> <FORMULA>
C14H10O5

> <MASS>
258.22620

> <MONOISOTOPIC_MASS>
258.05282

> <CHARGE>
0

> <SMILES>
Cc1cc(O)cc2oc(=O)c3c(O)cc(O)cc3c12

> <INCHI>
InChI=1S/C14H10O5/c1-6-2-7(15)5-11-12(6)9-3-8(16)4-10(17)13(9)14(18)19-11/h2-5,15-17H,1H3

> <INCHIKEY>
CEBXXEKPIIDJHL-UHFFFAOYSA-N

> <CAS_REGISTRY_NUMBER>
641-38-3

> <REAXYS_REGISTRY_NUMBER>
244839

> <CHEMIDPLUS>
641-38-3

> <KEGG_COMPOUND_ACCESSION>
C16838

> <KNAPSACK_ACCESSION>
C00023664

> <WIKIPEDIA_ACCESSION>
Alternariol

> <PUBMED_CITATION>
15822993; 16464542; 18727009; 19530709; 20687560; 21351248; 21534631; 21579450; 22120949; 22289771; 22406678; 22510154; 22542754; 22613072; 3899714; 4406099; 7986060

$$$$

Marvin  07061215402D          

 30 31  0  0  1  0            999 V2000
   12.9806   -3.9529    0.0000 O   0  0  0  0  0  0  0  0  0  0  0  0
   14.4095   -3.9529    0.0000 C   0  0  1  0  0  0  0  0  0  0  0  0
   15.1241   -3.5404    0.0000 C   0  0  2  0  0  0  0  0  0  0  0  0
   14.4095   -4.7777    0.0000 O   0  0  0  0  0  0  0  0  0  0  0  0
   13.6951   -3.5404    0.0000 C   0  0  1  0  0  0  0  0  0  0  0  0
   15.1241   -2.7154    0.0000 C   0  0  1  0  0  0  0  0  0  0  0  0
   13.6951   -2.7154    0.0000 C   0  0  2  0  0  0  0  0  0  0  0  0
   14.4095   -2.3029    0.0000 O   0  0  0  0  0  0  0  0  0  0  0  0
   15.8386   -2.3029    0.0000 O   0  0  0  0  0  0  0  0  0  0  0  0
   12.9806   -2.3029    0.0000 C   0  0  0  0  0  0  0  0  0  0  0  0
   15.8386   -3.9529    0.0000 N   0  0  0  0  0  0  0  0  0  0  0  0
   16.5531   -3.5404    0.0000 C   0  0  0  0  0  0  0  0  0  0  0  0
   17.2674   -3.9529    0.0000 C   0  0  0  0  0  0  0  0  0  0  0  0
   16.5531   -2.7154    0.0000 O   0  0  0  0  0  0  0  0  0  0  0  0
   12.9806   -1.4779    0.0000 O   0  0  0  0  0  0  0  0  0  0  0  0
   12.2660   -6.0154    0.0000 C   0  0  2  0  0  0  0  0  0  0  0  0
   12.9805   -6.4279    0.0000 C   0  0  1  0  0  0  0  0  0  0  0  0
   13.6951   -5.1903    0.0000 C   0  0  2  0  0  0  0  0  0  0  0  0
   12.9806   -4.7779    0.0000 O   0  0  0  0  0  0  0  0  0  0  0  0
   13.6951   -6.0154    0.0000 C   0  0  2  0  0  0  0  0  0  0  0  0
   12.2661   -5.1904    0.0000 C   0  0  2  0  0  0  0  0  0  0  0  0
   14.4095   -6.4279    0.0000 O   0  0  0  0  0  0  0  0  0  0  0  0
   12.9805   -7.2530    0.0000 O   0  0  0  0  0  0  0  0  0  0  0  0
   11.5517   -6.4279    0.0000 O   0  0  0  0  0  0  0  0  0  0  0  0
   11.5515   -4.7779    0.0000 C   0  0  0  0  0  0  0  0  0  0  0  0
   11.5517   -3.9529    0.0000 O   0  0  0  0  0  0  0  0  0  0  0  0
   14.4094   -7.2528    0.0000 O   0  0  0  0  0  0  0  0  0  0  0  0
   13.6951   -7.6655    0.0000 S   0  0  0  0  0  0  0  0  0  0  0  0
   13.2826   -8.3799    0.0000 O   0  0  0  0  0  0  0  0  0  0  0  0
   14.1075   -8.3799    0.0000 O   0  0  0  0  0  0  0  0  0  0  0  0
  2  3  1  0  0  0  0
  2  4  1  1  0  0  0
  2  5  1  0  0  0  0
  3  6  1  0  0  0  0
  3 11  1  6  0  0  0
  5  7  1  0  0  0  0
  5  1  1  6  0  0  0
  6  8  1  0  0  0  0
  6  9  1  1  0  0  0
  7 10  1  1  0  0  0
  7  8  1  0  0  0  0
 11 12  1  0  0  0  0
 12 13  1  0  0  0  0
 12 14  2  0  0  0  0
 10 15  1  0  0  0  0
 16 24  1  1  0  0  0
 17 16  1  0  0  0  0
 17 23  1  1  0  0  0
 18 19  1  0  0  0  0
 18 20  1  0  0  0  0
 20 17  1  0  0  0  0
 20 22  1  6  0  0  0
 21 16  1  0  0  0  0
 19 21  1  0  0  0  0
 21 25  1  1  0  0  0
 25 26  1  0  0  0  0
 23 28  1  0  0  0  0
 28 27  1  0  0  0  0
 28 29  2  0  0  0  0
 30 28  2  0  0  0  0
 18  4  1  1  0  0  0
M  END
> <ID>
CHEBI:65151

> <NAME>
beta-D-Galp3S-(1->3-)-beta-D-GlcpNAc

> <DEFINITION>
An amino disaccharide composed of 3-sulfated β-D-galactose and N-acetyl-β-D-glucosaminyl residues in β-(1→3) linkage.

> <STAR>
3

> <SYNONYM>
beta-D-Gal3S-(1->3-)-beta-D-GlcNAc; [3OSO3]Galbeta1-3GlcNAcbeta; 3-O-sulfo-beta-D-galactosyl-(1->3)-N-acetyl-beta-D-glucosamine; 2-acetamido-2-deoxy-3-O-(3-O-sulfo-beta-D-galactopyranosyl)-beta-D-glucopyranose; (3S)Galbeta1-3GlcNAcbeta; (3S)Galb1-3GlcNAcb

> <IUPAC_NAME>
3-O-sulfo-beta-D-galactopyranosyl-(1->3)-2-acetamido-2-deoxy-beta-D-glucopyranose

> <FORMULA>
C14H25NO14S

> <MASS>
463.41200

> <MONOISOTOPIC_MASS>
463.09958

> <CHARGE>
0

> <SMILES>
CC(=O)N[C@H]1[C@H](O)O[C@H](CO)[C@@H](O)[C@@H]1O[C@@H]1O[C@H](CO)[C@H](O)[C@H](OS(O)(=O)=O)[C@H]1O

> <INCHI>
InChI=1S/C14H25NO14S/c1-4(18)15-7-11(8(19)5(2-16)26-13(7)22)28-14-10(21)12(29-30(23,24)25)9(20)6(3-17)27-14/h5-14,16-17,19-22H,2-3H2,1H3,(H,15,18)(H,23,24,25)/t5-,6-,7-,8-,9+,10-,11-,12+,13-,14+/m1/s1

> <INCHIKEY>
JWSDQIUWYOEXRI-FUMFZKGCSA-N

> <PUBMED_CITATION>
19443021; 25568069; 31537530

$$$$

Marvin  07091213322D          

 30 31  0  0  1  0            999 V2000
    7.9868   -6.7192    0.0000 C   0  0  2  0  0  0  0  0  0  0  0  0
    8.7012   -7.1316    0.0000 C   0  0  1  0  0  0  0  0  0  0  0  0
    9.4157   -5.8940    0.0000 C   0  0  2  0  0  0  0  0  0  0  0  0
    8.7014   -5.4816    0.0000 O   0  0  0  0  0  0  0  0  0  0  0  0
    9.4157   -6.7192    0.0000 C   0  0  2  0  0  0  0  0  0  0  0  0
    7.9868   -5.8941    0.0000 C   0  0  2  0  0  0  0  0  0  0  0  0
   10.1301   -7.1316    0.0000 O   0  0  0  0  0  0  0  0  0  0  0  0
    8.7012   -7.9567    0.0000 O   0  0  0  0  0  0  0  0  0  0  0  0
    7.2724   -7.1316    0.0000 O   0  0  0  0  0  0  0  0  0  0  0  0
    7.2723   -5.4816    0.0000 C   0  0  0  0  0  0  0  0  0  0  0  0
    7.2724   -4.6567    0.0000 O   0  0  0  0  0  0  0  0  0  0  0  0
   10.1301   -7.9566    0.0000 O   0  0  0  0  0  0  0  0  0  0  0  0
    9.4157   -8.3692    0.0000 S   0  0  0  0  0  0  0  0  0  0  0  0
    9.0034   -9.0837    0.0000 O   0  0  0  0  0  0  0  0  0  0  0  0
    9.8282   -9.0837    0.0000 O   0  0  0  0  0  0  0  0  0  0  0  0
   10.1303   -5.4815    0.0000 O   0  0  0  0  0  0  0  0  0  0  0  0
   11.5591   -5.4815    0.0000 C   0  0  1  0  0  0  0  0  0  0  0  0
   12.2736   -5.0690    0.0000 C   0  0  2  0  0  0  0  0  0  0  0  0
   11.5591   -6.3063    0.0000 O   0  0  0  0  0  0  0  0  0  0  0  0
   10.8447   -5.0690    0.0000 C   0  0  1  0  0  0  0  0  0  0  0  0
   12.2736   -4.2440    0.0000 C   0  0  1  0  0  0  0  0  0  0  0  0
   10.8447   -4.2440    0.0000 C   0  0  2  0  0  0  0  0  0  0  0  0
   11.5591   -3.8315    0.0000 O   0  0  0  0  0  0  0  0  0  0  0  0
   12.9882   -3.8315    0.0000 O   0  0  0  0  0  0  0  0  0  0  0  0
   10.1303   -3.8315    0.0000 C   0  0  0  0  0  0  0  0  0  0  0  0
   12.9882   -5.4815    0.0000 N   0  0  0  0  0  0  0  0  0  0  0  0
   10.1303   -3.0066    0.0000 O   0  0  0  0  0  0  0  0  0  0  0  0
   13.7026   -5.0690    0.0000 C   0  0  0  0  0  0  0  0  0  0  0  0
   13.7026   -4.2440    0.0000 O   0  0  0  0  0  0  0  0  0  0  0  0
   14.4171   -5.4815    0.0000 C   0  0  0  0  0  0  0  0  0  0  0  0
  1  9  1  1  0  0  0
  2  1  1  0  0  0  0
  2  8  1  1  0  0  0
  3  4  1  0  0  0  0
  3  5  1  0  0  0  0
  5  2  1  0  0  0  0
  5  7  1  6  0  0  0
  6  1  1  0  0  0  0
  4  6  1  0  0  0  0
  6 10  1  1  0  0  0
 10 11  1  0  0  0  0
  8 13  1  0  0  0  0
 13 12  1  0  0  0  0
 13 14  2  0  0  0  0
 15 13  2  0  0  0  0
  3 16  1  1  0  0  0
 17 18  1  0  0  0  0
 17 19  1  1  0  0  0
 17 20  1  0  0  0  0
 18 21  1  0  0  0  0
 18 26  1  6  0  0  0
 20 22  1  0  0  0  0
 20 16  1  6  0  0  0
 21 23  1  0  0  0  0
 21 24  1  1  0  0  0
 22 25  1  1  0  0  0
 22 23  1  0  0  0  0
 25 27  1  0  0  0  0
 29 28  2  0  0  0  0
 30 28  1  0  0  0  0
 26 28  1  0  0  0  0
M  END
> <ID>
CHEBI:65178

> <NAME>
beta-D-Galp3S-(1->4)-beta-D-GlcpNAc

> <DEFINITION>
An amino disaccharide that consists of N-acetyl-β-D-glucosamine having a 3-sulfated β-D-galactosyl residue attached at position 4.

> <STAR>
3

> <SYNONYM>
beta-D-Gal3S-(1->4)-beta-D-GlcNAc; [3OSO3]Galbeta1-4GlcNAcbeta; 3-O-sulfo-beta-D-galactosyl-(1->4)-N-acetyl-beta-D-glucosamine; 2-acetamido-2-deoxy-4-O-(3-O-sulfo-beta-D-galactopyranosyl)-beta-D-glucopyranose; (3S)Galbeta1-4GlcNAcbeta; (3S)Galb1-4GlcNAcb

> <IUPAC_NAME>
3-O-sulfo-beta-D-galactopyranosyl-(1->4)-2-acetamido-2-deoxy-beta-D-glucopyranose

> <FORMULA>
C14H25NO14S

> <MASS>
463.41200

> <MONOISOTOPIC_MASS>
463.09958

> <CHARGE>
0

> <SMILES>
CC(=O)N[C@H]1[C@H](O)O[C@H](CO)[C@@H](O[C@@H]2O[C@H](CO)[C@H](O)[C@H](OS(O)(=O)=O)[C@H]2O)[C@@H]1O

> <INCHI>
InChI=1S/C14H25NO14S/c1-4(18)15-7-9(20)11(6(3-17)26-13(7)22)28-14-10(21)12(29-30(23,24)25)8(19)5(2-16)27-14/h5-14,16-17,19-22H,2-3H2,1H3,(H,15,18)(H,23,24,25)/t5-,6-,7-,8+,9-,10-,11-,12+,13-,14+/m1/s1

> <INCHIKEY>
OBGZWGPQQVKGMA-ZPXFZQJSSA-N

> <PUBMED_CITATION>
19443021; 25568069; 31537530

$$$$

Marvin  07091216102D          

 30 31  0  0  1  0            999 V2000
   13.6385   -4.8809    0.0000 C   0  0  1  0  0  0  0  0  0  0  0  0
   13.6385   -5.7059    0.0000 C   0  0  1  0  0  0  0  0  0  0  0  0
   12.9239   -4.4685    0.0000 O   0  0  0  0  0  0  0  0  0  0  0  0
   12.9239   -6.1185    0.0000 C   0  0  2  0  0  0  0  0  0  0  0  0
   12.2094   -4.8809    0.0000 C   0  0  1  0  0  0  0  0  0  0  0  0
   12.2094   -5.7059    0.0000 C   0  0  1  0  0  0  0  0  0  0  0  0
   14.3529   -4.4685    0.0000 O   0  0  0  0  0  0  0  0  0  0  0  0
   12.9239   -6.9435    0.0000 O   0  0  0  0  0  0  0  0  0  0  0  0
   11.4951   -6.1185    0.0000 O   0  0  0  0  0  0  0  0  0  0  0  0
   11.4951   -4.4685    0.0000 C   0  0  0  0  0  0  0  0  0  0  0  0
   14.3529   -6.9435    0.0000 C   0  0  0  0  0  0  0  0  0  0  0  0
   13.6385   -7.3559    0.0000 O   0  0  0  0  0  0  0  0  0  0  0  0
   14.3529   -6.1185    0.0000 N   0  0  0  0  0  0  0  0  0  0  0  0
   15.0674   -7.3559    0.0000 C   0  0  0  0  0  0  0  0  0  0  0  0
   10.7807   -6.5310    0.0000 C   0  0  1  0  0  0  0  0  0  0  0  0
   10.7807   -7.3559    0.0000 C   0  0  1  0  0  0  0  0  0  0  0  0
   10.0662   -6.1185    0.0000 O   0  0  0  0  0  0  0  0  0  0  0  0
   10.0662   -7.7684    0.0000 C   0  0  2  0  0  0  0  0  0  0  0  0
    9.3518   -6.5310    0.0000 C   0  0  1  0  0  0  0  0  0  0  0  0
    9.3518   -7.3559    0.0000 C   0  0  2  0  0  0  0  0  0  0  0  0
   11.4951   -7.7684    0.0000 O   0  0  0  0  0  0  0  0  0  0  0  0
   10.0662   -8.5934    0.0000 O   0  0  0  0  0  0  0  0  0  0  0  0
    8.6373   -7.7684    0.0000 O   0  0  0  0  0  0  0  0  0  0  0  0
    8.6373   -6.1185    0.0000 C   0  0  0  0  0  0  0  0  0  0  0  0
    7.9228   -6.5310    0.0000 O   0  0  0  0  0  0  0  0  0  0  0  0
   10.7807   -4.8810    0.0000 O   0  0  0  0  0  0  0  0  0  0  0  0
    6.4940   -6.5310    0.0000 O   0  0  0  0  0  0  0  0  0  0  0  0
    7.2085   -6.1185    0.0000 S   0  0  0  0  0  0  0  0  0  0  0  0
    6.7960   -5.4040    0.0000 O   0  0  0  0  0  0  0  0  0  0  0  0
    7.6208   -5.4040    0.0000 O   0  0  0  0  0  0  0  0  0  0  0  0
  1  2  1  0  0  0  0
  1  3  1  0  0  0  0
  2  4  1  0  0  0  0
  3  5  1  0  0  0  0
  4  6  1  0  0  0  0
  5  6  1  0  0  0  0
  1  7  1  1  0  0  0
  4  8  1  1  0  0  0
  6  9  1  6  0  0  0
  5 10  1  1  0  0  0
 12 11  2  0  0  0  0
 13 11  1  0  0  0  0
 14 11  1  0  0  0  0
  2 13  1  6  0  0  0
 15 16  1  0  0  0  0
 15 17  1  0  0  0  0
 16 18  1  0  0  0  0
 17 19  1  0  0  0  0
 18 20  1  0  0  0  0
 19 20  1  0  0  0  0
 15  9  1  1  0  0  0
 16 21  1  6  0  0  0
 18 22  1  1  0  0  0
 20 23  1  1  0  0  0
 19 24  1  1  0  0  0
 24 25  1  0  0  0  0
 10 26  1  0  0  0  0
 27 28  1  0  0  0  0
 28 25  1  0  0  0  0
 28 29  2  0  0  0  0
 30 28  2  0  0  0  0
M  END
> <ID>
CHEBI:65185

> <NAME>
beta-D-Galp6S-(1->4)-beta-D-GlcpNAc

> <DEFINITION>
An amino disaccharide that consists of N-acetyl-β-D-glucosamine having a 6-O-sulfo-β-D-galactosyl residue attached at position 4.

> <STAR>
3

> <SYNONYM>
beta-D-Gal6S-(1->4)-beta-D-GlcNAc; [6OSO3]Galbeta1-4GlcNAcbeta; 6-O-sulfo-beta-D-galactosyl-(1->4)-N-acetyl-beta-D-glucosamine; 2-acetamido-2-deoxy-4-O-(6-O-sulfo-beta-D-galactopyranosyl)-beta-D-glucopyranose; (6S)Galbeta1-4GlcNAcbeta; (6S)Galb1-4GlcNAcb

> <IUPAC_NAME>
6-O-sulfo-beta-D-galactopyranosyl-(1->4)-2-acetamido-2-deoxy-beta-D-glucopyranose

> <FORMULA>
C14H25NO14S

> <MASS>
463.41200

> <MONOISOTOPIC_MASS>
463.09958

> <CHARGE>
0

> <SMILES>
CC(=O)N[C@H]1[C@H](O)O[C@H](CO)[C@@H](O[C@@H]2O[C@H](COS(O)(=O)=O)[C@H](O)[C@H](O)[C@H]2O)[C@@H]1O

> <INCHI>
InChI=1S/C14H25NO14S/c1-4(17)15-7-9(19)12(5(2-16)27-13(7)22)29-14-11(21)10(20)8(18)6(28-14)3-26-30(23,24)25/h5-14,16,18-22H,2-3H2,1H3,(H,15,17)(H,23,24,25)/t5-,6-,7-,8+,9-,10+,11-,12-,13-,14+/m1/s1

> <INCHIKEY>
XLASDIANDPHQMK-LODBTCKLSA-N

> <PUBMED_CITATION>
19443021; 25568069; 31537530

$$$$

Marvin  01310815462D          

 30 33  0  0  0  0            999 V2000
    0.0000    0.8250    0.0000 C   0  0  0  0  0  0  0  0  0  0  0  0
    0.7145    0.4125    0.0000 C   0  0  0  0  0  0  0  0  0  0  0  0
    0.7145   -0.4125    0.0000 C   0  0  0  0  0  0  0  0  0  0  0  0
    0.0000   -0.8250    0.0000 C   0  0  0  0  0  0  0  0  0  0  0  0
   -0.7145   -0.4125    0.0000 C   0  0  0  0  0  0  0  0  0  0  0  0
   -0.7145    0.4125    0.0000 N   0  0  0  0  0  0  0  0  0  0  0  0
    0.7145    2.0625    0.0000 C   0  0  0  0  0  0  0  0  0  0  0  0
    0.0000    1.6500    0.0000 C   0  0  0  0  0  0  0  0  0  0  0  0
    1.4289    1.6500    0.0000 C   0  0  0  0  0  0  0  0  0  0  0  0
    1.4289    0.8250    0.0000 C   0  0  0  0  0  0  0  0  0  0  0  0
    1.4289   -0.8250    0.0000 C   0  0  0  0  0  0  0  0  0  0  0  0
    0.0000   -1.6500    0.0000 C   0  0  0  0  0  0  0  0  0  0  0  0
    1.4289   -1.6500    0.0000 C   0  0  0  0  0  0  0  0  0  0  0  0
   -1.4991   -0.6674    0.0000 N   0  0  0  0  0  0  0  0  0  0  0  0
    0.7145   -2.0625    0.0000 C   0  0  0  0  0  0  0  0  0  0  0  0
   -1.4991    0.6674    0.0000 N   0  0  0  0  0  0  0  0  0  0  0  0
   -1.9840    0.0000    0.0000 N   0  0  0  0  0  0  0  0  0  0  0  0
    0.7145    2.8875    0.0000 C   0  0  0  0  0  0  0  0  0  0  0  0
    1.4289    3.3000    0.0000 N   0  0  0  0  0  0  0  0  0  0  0  0
    2.2136    3.0451    0.0000 C   0  0  0  0  0  0  0  0  0  0  0  0
    1.4289    4.1250    0.0000 C   0  0  0  0  0  0  0  0  0  0  0  0
    2.6985    3.7125    0.0000 N   0  0  0  0  0  0  0  0  0  0  0  0
    2.2136    4.3799    0.0000 C   0  0  0  0  0  0  0  0  0  0  0  0
    2.4685    5.1646    0.0000 Cl  0  0  0  0  0  0  0  0  0  0  0  0
    0.7145    4.5375    0.0000 C   0  0  0  0  0  0  0  0  0  0  0  0
    0.7145    5.3625    0.0000 O   0  0  0  0  0  0  0  0  0  0  0  0
    2.4685    2.2604    0.0000 C   0  0  0  0  0  0  0  0  0  0  0  0
    3.2755    2.0889    0.0000 C   0  0  0  0  0  0  0  0  0  0  0  0
    3.5304    1.3043    0.0000 C   0  0  0  0  0  0  0  0  0  0  0  0
    4.3374    1.1328    0.0000 C   0  0  0  0  0  0  0  0  0  0  0  0
  1  8  2  0  0  0  0
  2  1  1  0  0  0  0
  2 10  2  0  0  0  0
  3  2  1  0  0  0  0
 11  3  2  0  0  0  0
  4  3  1  0  0  0  0
 12  4  2  0  0  0  0
  5  4  1  0  0  0  0
 14  5  2  0  0  0  0
  6  5  1  0  0  0  0
 16  6  1  0  0  0  0
  7 18  1  0  0  0  0
  8  7  1  0  0  0  0
  9  7  2  0  0  0  0
 10  9  1  0  0  0  0
 13 11  1  0  0  0  0
 15 12  1  0  0  0  0
 15 13  2  0  0  0  0
 17 14  1  0  0  0  0
 17 16  2  0  0  0  0
 18 19  1  0  0  0  0
 20 19  1  0  0  0  0
 21 19  1  0  0  0  0
 22 20  2  0  0  0  0
 27 20  1  0  0  0  0
 23 21  2  0  0  0  0
 25 21  1  0  0  0  0
 23 22  1  0  0  0  0
 24 23  1  0  0  0  0
 25 26  1  0  0  0  0
 28 27  1  0  0  0  0
 29 28  1  0  0  0  0
 30 29  1  0  0  0  0
M  END
> <ID>
CHEBI:6541

> <NAME>
losartan

> <DEFINITION>
A biphenylyltetrazole where a 1,1'-biphenyl group is attached at the 5-position and has an additional trisubstituted imidazol-1-ylmethyl group at the 4'-position

> <STAR>
3

> <SYNONYM>
Losartan; 2-n-butyl-4-chloro-5-hydroxymethyl-1-[(2'-(1H-tetrazol-5-yl)biphenyl-4-yl)methyl]imidazole; (2-butyl-4-chloro-1-{[2'-(1H-tetrazol-5-yl)biphenyl-4-yl]methyl}-1H-imidazol-5-yl)methanol

> <IUPAC_NAME>
(2-butyl-4-chloro-1-{[2'-(1H-tetrazol-5-yl)[1,1'-biphenyl]-4-yl]methyl}-1H-imidazol-5-yl)methanol

> <INN>
losartan

> <FORMULA>
C22H23ClN6O; C22H22ClN6O.K

> <MASS>
422.91100

> <MONOISOTOPIC_MASS>
422.16219

> <CHARGE>
0

> <SMILES>
CCCCc1nc(Cl)c(CO)n1Cc1ccc(cc1)-c1ccccc1-c1nnn[nH]1

> <INCHI>
InChI=1S/C22H23ClN6O/c1-2-3-8-20-24-21(23)19(14-30)29(20)13-15-9-11-16(12-10-15)17-6-4-5-7-18(17)22-25-27-28-26-22/h4-7,9-12,30H,2-3,8,13-14H2,1H3,(H,25,26,27,28)

> <INCHIKEY>
PSIFNNKUMBGKDQ-UHFFFAOYSA-N

> <BEILSTEIN_REGISTRY_NUMBER>
4770867

> <CAS_REGISTRY_NUMBER>
114798-26-4

> <REAXYS_REGISTRY_NUMBER>
4770867

> <CHEMIDPLUS>
114798-26-4

> <DRUGBANK_ACCESSION>
DB00678

> <HMDB_ACCESSION>
HMDB0014816

> <KEGG_COMPOUND_ACCESSION>
C07072

> <KEGG_DRUG_ACCESSION>
D08146

> <LINCS_ACCESSION>
LSM-3701

> <WIKIPEDIA_ACCESSION>
Losartan

> <PUBMED_CITATION>
11115412; 11589260; 12561964; 15703421; 18800450; 18800451; 18800458; 18940180; 31299855; 31613648; 31636311; 31893179; 32048541

$$$$

Marvin  07311210272D          

 33 35  0  0  1  0            999 V2000
   11.0606  -19.8143    0.0000 C   0  0  0  0  0  0  0  0  0  0  0  0
   11.0606  -20.6393    0.0000 C   0  0  1  0  0  0  0  0  0  0  0  0
   10.3461  -19.4018    0.0000 O   0  0  0  0  0  0  0  0  0  0  0  0
   10.3461  -21.0518    0.0000 C   0  0  2  0  0  0  0  0  0  0  0  0
    9.6317  -19.8143    0.0000 C   0  0  1  0  0  0  0  0  0  0  0  0
    9.6317  -20.6393    0.0000 C   0  0  2  0  0  0  0  0  0  0  0  0
   11.7751  -19.4018    0.0000 O   0  0  0  0  0  0  0  0  0  0  0  0
   11.7751  -21.0518    0.0000 O   0  0  0  0  0  0  0  0  0  0  0  0
   10.3461  -21.8767    0.0000 O   0  0  0  0  0  0  0  0  0  0  0  0
    8.9172  -21.0518    0.0000 O   0  0  0  0  0  0  0  0  0  0  0  0
    8.9172  -19.4018    0.0000 C   0  0  0  0  0  0  0  0  0  0  0  0
    8.2028  -19.8143    0.0000 O   0  0  0  0  0  0  0  0  0  0  0  0
    9.6317  -22.2892    0.0000 C   0  0  2  0  0  0  0  0  0  0  0  0
    9.6317  -23.1142    0.0000 C   0  0  1  0  0  0  0  0  0  0  0  0
    8.9172  -21.8767    0.0000 O   0  0  0  0  0  0  0  0  0  0  0  0
    8.9172  -23.5267    0.0000 C   0  0  2  0  0  0  0  0  0  0  0  0
    8.2028  -22.2892    0.0000 C   0  0  1  0  0  0  0  0  0  0  0  0
    8.2028  -23.1142    0.0000 C   0  0  2  0  0  0  0  0  0  0  0  0
   10.3461  -23.5267    0.0000 N   0  0  0  0  0  0  0  0  0  0  0  0
    8.9172  -24.3517    0.0000 O   0  0  0  0  0  0  0  0  0  0  0  0
    7.4884  -23.5267    0.0000 O   0  0  0  0  0  0  0  0  0  0  0  0
    7.4884  -21.8767    0.0000 C   0  0  0  0  0  0  0  0  0  0  0  0
    6.7738  -22.2892    0.0000 O   0  0  0  0  0  0  0  0  0  0  0  0
   12.4895  -22.2892    0.0000 O   0  0  0  0  0  0  0  0  0  0  0  0
   13.2039  -22.7017    0.0000 C   0  0  2  0  0  0  0  0  0  0  0  0
   12.4895  -21.4642    0.0000 C   0  0  2  0  0  0  0  0  0  0  0  0
   13.2039  -21.0517    0.0000 C   0  0  2  0  0  0  0  0  0  0  0  0
   13.9186  -21.4643    0.0000 C   0  0  1  0  0  0  0  0  0  0  0  0
   13.9186  -22.2893    0.0000 C   0  0  2  0  0  0  0  0  0  0  0  0
   13.2041  -20.2268    0.0000 O   0  0  0  0  0  0  0  0  0  0  0  0
   14.6330  -21.0518    0.0000 O   0  0  0  0  0  0  0  0  0  0  0  0
   14.6330  -22.7017    0.0000 O   0  0  0  0  0  0  0  0  0  0  0  0
   13.2039  -23.5267    0.0000 C   0  0  0  0  0  0  0  0  0  0  0  0
  1  2  1  0  0  0  0
  1  3  1  0  0  0  0
  2  4  1  0  0  0  0
  3  5  1  0  0  0  0
  4  6  1  0  0  0  0
  5  6  1  0  0  0  0
  1  7  1  0  0  0  0
  2  8  1  6  0  0  0
  4  9  1  1  0  0  0
  6 10  1  1  0  0  0
  5 11  1  1  0  0  0
 12 11  1  0  0  0  0
 13 14  1  0  0  0  0
 13 15  1  0  0  0  0
 14 16  1  0  0  0  0
 15 17  1  0  0  0  0
 16 18  1  0  0  0  0
 17 18  1  0  0  0  0
 13  9  1  6  0  0  0
 14 19  1  6  0  0  0
 16 20  1  1  0  0  0
 18 21  1  1  0  0  0
 17 22  1  1  0  0  0
 23 22  1  0  0  0  0
 25 24  1  0  0  0  0
 26 24  1  0  0  0  0
 26  8  1  1  0  0  0
 26 27  1  0  0  0  0
 27 30  1  1  0  0  0
 27 28  1  0  0  0  0
 28 31  1  6  0  0  0
 28 29  1  0  0  0  0
 29 25  1  0  0  0  0
 29 32  1  6  0  0  0
 25 33  1  6  0  0  0
M  END
> <ID>
CHEBI:66875

> <NAME>
alpha-D-GalpN-(1->3)-[alpha-L-Fucp-(1->2)]-D-Galp

> <DEFINITION>
A branched amino trisaccharide consisting of D-galactose having an α-L-fucosyl residue at the 2-position and an α-D-galactosaminyl residue at the 3-position.

> <STAR>
3

> <SYNONYM>
GalNalpha1->3(Fucalpha1->2)Gal; alphaGalN1->3(alphaFuc1->2)Gal; alpha-L-Fucp-(1->2)-[alpha-D-GalpN-(1->3)]-D-Galp; alpha-L-fucosyl-(1->2)-[alpha-D-galactosaminyl-(1->3)]-D-galactose; alpha-L-Fuc-(1->2)-[alpha-D-GalN-(1->3)]-D-Gal; alpha-D-GalN-(1->3)-[alpha-L-Fuc-(1->2)]-D-Gal; alpha-D-galactosaminyl-(1->3)-[alpha-L-fucosyl-(1->2)]-D-galactose; 2-amino-2-deoxy-alpha-D-galactopyranosyl-(1->3)-[6-deoxy-alpha-L-galactopyranosyl-(1->2)]-D-galactopyranose

> <IUPAC_NAME>
2-amino-2-deoxy-alpha-D-galactopyranosyl-(1->3)-[alpha-L-fucopyranosyl-(1->2)]-D-galactopyranose

> <FORMULA>
C18H33NO14

> <MASS>
487.45290

> <MONOISOTOPIC_MASS>
487.19010

> <CHARGE>
0

> <SMILES>
C[C@@H]1O[C@@H](O[C@H]2C(O)O[C@H](CO)[C@H](O)[C@@H]2O[C@H]2O[C@H](CO)[C@H](O)[C@H](O)[C@H]2N)[C@@H](O)[C@H](O)[C@@H]1O

> <INCHI>
InChI=1S/C18H33NO14/c1-4-8(22)12(26)13(27)18(29-4)33-15-14(10(24)6(3-21)30-16(15)28)32-17-7(19)11(25)9(23)5(2-20)31-17/h4-18,20-28H,2-3,19H2,1H3/t4-,5+,6+,7+,8+,9-,10-,11+,12+,13-,14-,15+,16?,17+,18-/m0/s1

> <INCHIKEY>
LBOYOVHGRDGNJV-ILUDPQIGSA-N

> <PUBMED_CITATION>
21981750

$$$$

Marvin  07311211412D          

 33 35  0  0  1  0            999 V2000
    9.1429  -11.9477    0.0000 C   0  0  2  0  0  0  0  0  0  0  0  0
    9.1429  -12.7727    0.0000 C   0  0  2  0  0  0  0  0  0  0  0  0
    8.4284  -11.5352    0.0000 O   0  0  0  0  0  0  0  0  0  0  0  0
    8.4284  -13.1852    0.0000 C   0  0  2  0  0  0  0  0  0  0  0  0
    7.7139  -11.9477    0.0000 C   0  0  1  0  0  0  0  0  0  0  0  0
    7.7139  -12.7727    0.0000 C   0  0  1  0  0  0  0  0  0  0  0  0
    9.8573  -11.5352    0.0000 O   0  0  0  0  0  0  0  0  0  0  0  0
    9.8573  -13.1852    0.0000 O   0  0  0  0  0  0  0  0  0  0  0  0
    8.4284  -14.0102    0.0000 O   0  0  0  0  0  0  0  0  0  0  0  0
    6.9994  -13.1852    0.0000 O   0  0  0  0  0  0  0  0  0  0  0  0
    6.9994  -11.5352    0.0000 C   0  0  0  0  0  0  0  0  0  0  0  0
    6.2849  -11.9477    0.0000 O   0  0  0  0  0  0  0  0  0  0  0  0
   12.0008  -10.2976    0.0000 C   0  0  1  0  0  0  0  0  0  0  0  0
   12.0008  -11.1227    0.0000 C   0  0  1  0  0  0  0  0  0  0  0  0
   11.2863   -9.8851    0.0000 O   0  0  0  0  0  0  0  0  0  0  0  0
   11.2863  -11.5352    0.0000 C   0  0  1  0  0  0  0  0  0  0  0  0
   10.5718  -10.2976    0.0000 C   0  0  2  0  0  0  0  0  0  0  0  0
   10.5718  -11.1227    0.0000 C   0  0  2  0  0  0  0  0  0  0  0  0
   12.7153   -9.8851    0.0000 O   0  0  0  0  0  0  0  0  0  0  0  0
   12.7153  -11.5352    0.0000 O   0  0  0  0  0  0  0  0  0  0  0  0
   11.2862  -12.3602    0.0000 O   0  0  0  0  0  0  0  0  0  0  0  0
    9.8573   -9.8851    0.0000 C   0  0  0  0  0  0  0  0  0  0  0  0
   13.4298   -7.8226    0.0000 C   0  0  2  0  0  0  0  0  0  0  0  0
   13.4298   -8.6476    0.0000 C   0  0  1  0  0  0  0  0  0  0  0  0
   12.7153   -7.4101    0.0000 O   0  0  0  0  0  0  0  0  0  0  0  0
   12.7153   -9.0601    0.0000 C   0  0  2  0  0  0  0  0  0  0  0  0
   12.0008   -7.8226    0.0000 C   0  0  1  0  0  0  0  0  0  0  0  0
   12.0008   -8.6476    0.0000 C   0  0  2  0  0  0  0  0  0  0  0  0
   14.1443   -7.4101    0.0000 O   0  0  0  0  0  0  0  0  0  0  0  0
   14.1443   -9.0601    0.0000 O   0  0  0  0  0  0  0  0  0  0  0  0
   11.2863   -9.0601    0.0000 O   0  0  0  0  0  0  0  0  0  0  0  0
   11.2863   -7.4101    0.0000 C   0  0  0  0  0  0  0  0  0  0  0  0
   10.5719   -7.8226    0.0000 O   0  0  0  0  0  0  0  0  0  0  0  0
  1  2  1  0  0  0  0
  1  3  1  0  0  0  0
  2  4  1  0  0  0  0
  3  5  1  0  0  0  0
  4  6  1  0  0  0  0
  5  6  1  0  0  0  0
  1  7  1  6  0  0  0
  2  8  1  1  0  0  0
  4  9  1  1  0  0  0
  6 10  1  6  0  0  0
  5 11  1  1  0  0  0
 12 11  1  0  0  0  0
 13 14  1  0  0  0  0
 13 15  1  0  0  0  0
 14 16  1  0  0  0  0
 15 17  1  0  0  0  0
 16 18  1  0  0  0  0
 17 18  1  0  0  0  0
 13 19  1  1  0  0  0
 14 20  1  6  0  0  0
 16 21  1  6  0  0  0
 18  7  1  1  0  0  0
 17 22  1  6  0  0  0
 23 24  1  0  0  0  0
 23 25  1  0  0  0  0
 24 26  1  0  0  0  0
 25 27  1  0  0  0  0
 26 28  1  0  0  0  0
 27 28  1  0  0  0  0
 23 29  1  6  0  0  0
 24 30  1  6  0  0  0
 26 19  1  1  0  0  0
 28 31  1  1  0  0  0
 27 32  1  1  0  0  0
 33 32  1  0  0  0  0
M  END
> <ID>
CHEBI:66877

> <NAME>
alpha-D-Manp-(1->4)-alpha-L-Rhap-(1->3)-alpha-D-Galp

> <DEFINITION>
A linear trisaccharide comprised of mannose, rhamnose and galactose residues linked α(1→4) and α(1→3), respectively, with α configuration at the anomeric centre of the galactose residue.

> <STAR>
3

> <SYNONYM>
Manalpha1-4Rhaalpha1-3Galalpha; alpha-D-mannopyranosyl-(1->4)-6-deoxy-alpha-L-mannopyranosyl-(1->3)-alpha-D-galactopyranose; alpha-D-Man-(1->4)-alpha-L-Rha-(1->3)-alpha-D-Gal

> <IUPAC_NAME>
alpha-D-mannopyranosyl-(1->4)-alpha-L-rhamnopyranosyl-(1->3)-alpha-D-galactopyranose

> <FORMULA>
C18H32O15

> <MASS>
488.43770

> <MONOISOTOPIC_MASS>
488.17412

> <CHARGE>
0

> <SMILES>
C[C@@H]1O[C@@H](O[C@@H]2[C@@H](O)[C@@H](O)O[C@H](CO)[C@@H]2O)[C@H](O)[C@H](O)[C@H]1O[C@H]1O[C@H](CO)[C@@H](O)[C@H](O)[C@@H]1O

> <INCHI>
InChI=1S/C18H32O15/c1-4-14(32-18-11(25)9(23)7(21)5(2-19)31-18)10(24)12(26)17(29-4)33-15-8(22)6(3-20)30-16(28)13(15)27/h4-28H,2-3H2,1H3/t4-,5+,6+,7+,8-,9-,10-,11-,12+,13+,14-,15-,16-,17-,18+/m0/s1

> <INCHIKEY>
CWVRQJBCBCTFLT-YWMPKNKZSA-N

> <PUBMED_CITATION>
17558551

$$$$

Marvin  07311212532D          

 42 45  0  0  1  0            999 V2000
    7.3331  -25.6213    0.0000 O   0  0  0  0  0  0  0  0  0  0  0  0
    6.6186  -26.0338    0.0000 C   0  0  2  0  0  0  0  0  0  0  0  0
    6.6186  -26.8588    0.0000 C   0  0  2  0  0  0  0  0  0  0  0  0
    5.9041  -25.6213    0.0000 O   0  0  0  0  0  0  0  0  0  0  0  0
    5.9041  -27.2712    0.0000 C   0  0  0  0  0  0  0  0  0  0  0  0
    5.1897  -26.0338    0.0000 C   0  0  1  0  0  0  0  0  0  0  0  0
    5.1897  -26.8588    0.0000 C   0  0  1  0  0  0  0  0  0  0  0  0
    7.3331  -27.2712    0.0000 O   0  0  0  0  0  0  0  0  0  0  0  0
    4.4752  -27.2712    0.0000 O   0  0  0  0  0  0  0  0  0  0  0  0
    4.4752  -25.6213    0.0000 C   0  0  0  0  0  0  0  0  0  0  0  0
    8.0477  -23.5588    0.0000 C   0  0  2  0  0  0  0  0  0  0  0  0
    8.0477  -24.3838    0.0000 C   0  0  2  0  0  0  0  0  0  0  0  0
    7.3331  -23.1463    0.0000 O   0  0  0  0  0  0  0  0  0  0  0  0
    7.3331  -24.7963    0.0000 C   0  0  2  0  0  0  0  0  0  0  0  0
    6.6187  -23.5588    0.0000 C   0  0  1  0  0  0  0  0  0  0  0  0
    6.6187  -24.3838    0.0000 C   0  0  1  0  0  0  0  0  0  0  0  0
    8.7621  -23.1462    0.0000 O   0  0  0  0  0  0  0  0  0  0  0  0
    8.7621  -24.7963    0.0000 O   0  0  0  0  0  0  0  0  0  0  0  0
    5.9042  -24.7962    0.0000 O   0  0  0  0  0  0  0  0  0  0  0  0
    5.9042  -23.1463    0.0000 C   0  0  0  0  0  0  0  0  0  0  0  0
    5.1897  -23.5588    0.0000 O   0  0  0  0  0  0  0  0  0  0  0  0
   10.9055  -21.9087    0.0000 C   0  0  1  0  0  0  0  0  0  0  0  0
   10.9055  -22.7337    0.0000 C   0  0  1  0  0  0  0  0  0  0  0  0
   10.1910  -21.4962    0.0000 O   0  0  0  0  0  0  0  0  0  0  0  0
   10.1910  -23.1462    0.0000 C   0  0  1  0  0  0  0  0  0  0  0  0
    9.4766  -21.9087    0.0000 C   0  0  2  0  0  0  0  0  0  0  0  0
    9.4766  -22.7337    0.0000 C   0  0  2  0  0  0  0  0  0  0  0  0
   11.6200  -21.4962    0.0000 O   0  0  0  0  0  0  0  0  0  0  0  0
   11.6200  -23.1462    0.0000 O   0  0  0  0  0  0  0  0  0  0  0  0
   10.1910  -23.9713    0.0000 O   0  0  0  0  0  0  0  0  0  0  0  0
    8.7621  -21.4962    0.0000 C   0  0  0  0  0  0  0  0  0  0  0  0
   12.3346  -19.4337    0.0000 C   0  0  2  0  0  0  0  0  0  0  0  0
   12.3346  -20.2587    0.0000 C   0  0  1  0  0  0  0  0  0  0  0  0
   11.6200  -19.0212    0.0000 O   0  0  0  0  0  0  0  0  0  0  0  0
   11.6200  -20.6712    0.0000 C   0  0  2  0  0  0  0  0  0  0  0  0
   10.9056  -19.4337    0.0000 C   0  0  1  0  0  0  0  0  0  0  0  0
   10.9056  -20.2587    0.0000 C   0  0  2  0  0  0  0  0  0  0  0  0
   13.0490  -19.0212    0.0000 O   0  0  0  0  0  0  0  0  0  0  0  0
   13.0490  -20.6712    0.0000 O   0  0  0  0  0  0  0  0  0  0  0  0
   10.1911  -20.6712    0.0000 O   0  0  0  0  0  0  0  0  0  0  0  0
   10.1911  -19.0212    0.0000 C   0  0  0  0  0  0  0  0  0  0  0  0
    9.4766  -19.4337    0.0000 O   0  0  0  0  0  0  0  0  0  0  0  0
  2  3  1  0  0  0  0
  2  4  1  0  0  0  0
  3  5  1  0  0  0  0
  4  6  1  0  0  0  0
  5  7  1  0  0  0  0
  6  7  1  0  0  0  0
  2  1  1  6  0  0  0
  3  8  1  1  0  0  0
  7  9  1  6  0  0  0
  6 10  1  1  0  0  0
 11 12  1  0  0  0  0
 11 13  1  0  0  0  0
 12 14  1  0  0  0  0
 13 15  1  0  0  0  0
 14 16  1  0  0  0  0
 15 16  1  0  0  0  0
 11 17  1  6  0  0  0
 12 18  1  1  0  0  0
 14  1  1  1  0  0  0
 16 19  1  6  0  0  0
 15 20  1  1  0  0  0
 21 20  1  0  0  0  0
 22 23  1  0  0  0  0
 22 24  1  0  0  0  0
 23 25  1  0  0  0  0
 24 26  1  0  0  0  0
 25 27  1  0  0  0  0
 26 27  1  0  0  0  0
 22 28  1  1  0  0  0
 23 29  1  6  0  0  0
 25 30  1  6  0  0  0
 27 17  1  1  0  0  0
 26 31  1  6  0  0  0
 32 33  1  0  0  0  0
 32 34  1  0  0  0  0
 33 35  1  0  0  0  0
 34 36  1  0  0  0  0
 35 37  1  0  0  0  0
 36 37  1  0  0  0  0
 32 38  1  6  0  0  0
 33 39  1  6  0  0  0
 35 28  1  1  0  0  0
 37 40  1  1  0  0  0
 36 41  1  1  0  0  0
 42 41  1  0  0  0  0
M  END
> <ID>
CHEBI:66883

> <NAME>
alpha-Tyvp-(1->3)-alpha-D-Manp-(1->4)-alpha-L-Rhap-(1->3)-alpha-D-Galp

> <DEFINITION>
A linear tetrasaccharide comprised of tyvelose, mannose, rhamnose and galactose residues linked α(1→3, α(1→4) and α(1→3), respectively, with α configuration at the anomeric centre of the galactose residue.

> <STAR>
3

> <SYNONYM>
Tyvalpha1-3Manalpha1-4Rhaalpha1-3Galalpha; alpha-Tyv-(1->3)-alpha-D-Man-(1->4)-alpha-L-Rha-(1->3)-alpha-D-Gal; 3,6-dideoxy-alpha-D-arabino-hexopyranosyl-(1->3)-alpha-D-mannopyranosyl-(1->4)-6-deoxy-alpha-L-mannopyranosyl-(1->3)-alpha-D-galactopyranose

> <IUPAC_NAME>
3,6-dideoxy-alpha-D-arabino-hexopyranosyl-(1->3)-alpha-D-mannopyranosyl-(1->4)-alpha-L-rhamnopyranosyl-(1->3)-alpha-D-galactopyranose

> <FORMULA>
C24H42O18

> <MASS>
618.57950

> <MONOISOTOPIC_MASS>
618.23711

> <CHARGE>
0

> <SMILES>
C[C@H]1O[C@H](O[C@H]2[C@H](O)[C@@H](CO)O[C@H](O[C@H]3[C@H](C)O[C@@H](O[C@@H]4[C@@H](O)[C@@H](O)O[C@H](CO)[C@@H]4O)[C@H](O)[C@@H]3O)[C@H]2O)[C@@H](O)C[C@@H]1O

> <INCHI>
InChI=1S/C24H42O18/c1-6-8(27)3-9(28)22(36-6)41-20-13(30)11(5-26)39-24(17(20)34)40-18-7(2)37-23(15(32)14(18)31)42-19-12(29)10(4-25)38-21(35)16(19)33/h6-35H,3-5H2,1-2H3/t6-,7+,8+,9+,10-,11-,12+,13-,14+,15-,16-,17+,18+,19+,20+,21+,22-,23+,24-/m1/s1

> <INCHIKEY>
KBKKKSLORYFXSB-WWXSKWTJSA-N

> <PUBMED_CITATION>
17558551

$$$$

Marvin  07311216112D          

 42 45  0  0  1  0            999 V2000
    9.1322  -11.8945    0.0000 O   0  0  0  0  0  0  0  0  0  0  0  0
    8.4177  -12.3070    0.0000 C   0  0  2  0  0  0  0  0  0  0  0  0
    8.4177  -13.1320    0.0000 C   0  0  1  0  0  0  0  0  0  0  0  0
    7.7031  -11.8945    0.0000 O   0  0  0  0  0  0  0  0  0  0  0  0
    7.7031  -13.5444    0.0000 C   0  0  0  0  0  0  0  0  0  0  0  0
    6.9887  -12.3070    0.0000 C   0  0  1  0  0  0  0  0  0  0  0  0
    6.9887  -13.1320    0.0000 C   0  0  1  0  0  0  0  0  0  0  0  0
    9.1322  -13.5444    0.0000 O   0  0  0  0  0  0  0  0  0  0  0  0
    6.2742  -13.5444    0.0000 O   0  0  0  0  0  0  0  0  0  0  0  0
    6.2742  -11.8945    0.0000 C   0  0  0  0  0  0  0  0  0  0  0  0
    9.8468   -9.8320    0.0000 C   0  0  2  0  0  0  0  0  0  0  0  0
    9.8468  -10.6570    0.0000 C   0  0  2  0  0  0  0  0  0  0  0  0
    9.1323   -9.4195    0.0000 O   0  0  0  0  0  0  0  0  0  0  0  0
    9.1323  -11.0695    0.0000 C   0  0  2  0  0  0  0  0  0  0  0  0
    8.4178   -9.8320    0.0000 C   0  0  1  0  0  0  0  0  0  0  0  0
    8.4178  -10.6570    0.0000 C   0  0  1  0  0  0  0  0  0  0  0  0
   10.5612   -9.4195    0.0000 O   0  0  0  0  0  0  0  0  0  0  0  0
   10.5612  -11.0695    0.0000 O   0  0  0  0  0  0  0  0  0  0  0  0
    7.7033  -11.0695    0.0000 O   0  0  0  0  0  0  0  0  0  0  0  0
    7.7033   -9.4195    0.0000 C   0  0  0  0  0  0  0  0  0  0  0  0
    6.9889   -9.8320    0.0000 O   0  0  0  0  0  0  0  0  0  0  0  0
   12.7046   -8.1819    0.0000 C   0  0  1  0  0  0  0  0  0  0  0  0
   12.7046   -9.0070    0.0000 C   0  0  1  0  0  0  0  0  0  0  0  0
   11.9902   -7.7694    0.0000 O   0  0  0  0  0  0  0  0  0  0  0  0
   11.9902   -9.4195    0.0000 C   0  0  1  0  0  0  0  0  0  0  0  0
   11.2757   -8.1819    0.0000 C   0  0  2  0  0  0  0  0  0  0  0  0
   11.2757   -9.0070    0.0000 C   0  0  2  0  0  0  0  0  0  0  0  0
   13.4191   -7.7694    0.0000 O   0  0  0  0  0  0  0  0  0  0  0  0
   13.4191   -9.4195    0.0000 O   0  0  0  0  0  0  0  0  0  0  0  0
   11.9901  -10.2445    0.0000 O   0  0  0  0  0  0  0  0  0  0  0  0
   10.5612   -7.7694    0.0000 C   0  0  0  0  0  0  0  0  0  0  0  0
   14.1336   -5.7069    0.0000 C   0  0  2  0  0  0  0  0  0  0  0  0
   14.1336   -6.5319    0.0000 C   0  0  1  0  0  0  0  0  0  0  0  0
   13.4191   -5.2944    0.0000 O   0  0  0  0  0  0  0  0  0  0  0  0
   13.4191   -6.9444    0.0000 C   0  0  2  0  0  0  0  0  0  0  0  0
   12.7046   -5.7069    0.0000 C   0  0  1  0  0  0  0  0  0  0  0  0
   12.7046   -6.5319    0.0000 C   0  0  2  0  0  0  0  0  0  0  0  0
   14.8481   -5.2944    0.0000 O   0  0  0  0  0  0  0  0  0  0  0  0
   14.8481   -6.9445    0.0000 O   0  0  0  0  0  0  0  0  0  0  0  0
   11.9902   -6.9444    0.0000 O   0  0  0  0  0  0  0  0  0  0  0  0
   11.9902   -5.2944    0.0000 C   0  0  0  0  0  0  0  0  0  0  0  0
   11.2757   -5.7070    0.0000 O   0  0  0  0  0  0  0  0  0  0  0  0
  2  3  1  0  0  0  0
  2  4  1  0  0  0  0
  3  5  1  0  0  0  0
  4  6  1  0  0  0  0
  5  7  1  0  0  0  0
  6  7  1  0  0  0  0
  2  1  1  6  0  0  0
  3  8  1  6  0  0  0
  7  9  1  6  0  0  0
  6 10  1  1  0  0  0
 11 12  1  0  0  0  0
 11 13  1  0  0  0  0
 12 14  1  0  0  0  0
 13 15  1  0  0  0  0
 14 16  1  0  0  0  0
 15 16  1  0  0  0  0
 11 17  1  6  0  0  0
 12 18  1  1  0  0  0
 14  1  1  1  0  0  0
 16 19  1  6  0  0  0
 15 20  1  1  0  0  0
 21 20  1  0  0  0  0
 22 23  1  0  0  0  0
 22 24  1  0  0  0  0
 23 25  1  0  0  0  0
 24 26  1  0  0  0  0
 25 27  1  0  0  0  0
 26 27  1  0  0  0  0
 22 28  1  1  0  0  0
 23 29  1  6  0  0  0
 25 30  1  6  0  0  0
 27 17  1  1  0  0  0
 26 31  1  6  0  0  0
 32 33  1  0  0  0  0
 32 34  1  0  0  0  0
 33 35  1  0  0  0  0
 34 36  1  0  0  0  0
 35 37  1  0  0  0  0
 36 37  1  0  0  0  0
 32 38  1  6  0  0  0
 33 39  1  6  0  0  0
 35 28  1  1  0  0  0
 37 40  1  1  0  0  0
 36 41  1  1  0  0  0
 42 41  1  0  0  0  0
M  END
> <ID>
CHEBI:66890

> <NAME>
alpha-Parp-(1->3)-alpha-D-Manp-(1->4)-alpha-L-Rhap-(1->3)-alpha-D-Galp

> <DEFINITION>
A tetrasaccharide comprising paratose, D-mannose, L-rhamnose and D-galactose residues linked α(1→3), α(1→4) and α(1→3) respectively.

> <STAR>
3

> <SYNONYM>
alpha-paratosyl-(1->3)-alpha-D-mannosyl-(1->4)-alpha-L-rhamnosyl-(1->3)-alpha-D-galactose; alpha-paratopyranosyl-(1->3)-alpha-D-mannopyranosyl-(1->4)-alpha-L-rhamnopyranosyl-(1->3)-alpha-D-galactopyranose; alpha-Par-(1->3)-alpha-D-Man-(1->4)-alpha-L-Rha-(1->3)-alpha-D-Gal

> <IUPAC_NAME>
3,6-dideoxy-alpha-D-ribo-hexopyranosyl-(1->3)-alpha-D-mannopyranosyl-(1->4)-alpha-L-rhamnopyranosyl-(1->3)-alpha-D-galactopyranose

> <FORMULA>
C24H42O18

> <MASS>
618.57950

> <MONOISOTOPIC_MASS>
618.23711

> <CHARGE>
0

> <SMILES>
C[C@H]1O[C@H](O[C@H]2[C@H](O)[C@@H](CO)O[C@H](O[C@H]3[C@H](C)O[C@@H](O[C@@H]4[C@@H](O)[C@@H](O)O[C@H](CO)[C@@H]4O)[C@H](O)[C@@H]3O)[C@H]2O)[C@H](O)C[C@@H]1O

> <INCHI>
InChI=1S/C24H42O18/c1-6-8(27)3-9(28)22(36-6)41-20-13(30)11(5-26)39-24(17(20)34)40-18-7(2)37-23(15(32)14(18)31)42-19-12(29)10(4-25)38-21(35)16(19)33/h6-35H,3-5H2,1-2H3/t6-,7+,8+,9-,10-,11-,12+,13-,14+,15-,16-,17+,18+,19+,20+,21+,22-,23+,24-/m1/s1

> <INCHIKEY>
KBKKKSLORYFXSB-JYVVICJPSA-N

> <PUBMED_CITATION>
17558551

$$$$

Marvin  08081214172D          

 25 27  0  0  1  0            999 V2000
    7.6955   -5.8135    0.0000 C   0  0  1  0  0  0  0  0  0  0  0  0
    8.4043   -6.2242    0.0000 C   0  0  0  0  0  0  0  0  0  0  0  0
    6.9797   -6.2242    0.0000 C   0  0  2  0  0  0  0  0  0  0  0  0
    7.6989   -4.9925    0.0000 C   0  0  0  0  0  0  0  0  0  0  0  0
    8.4043   -7.0523    0.0000 C   0  0  0  0  0  0  0  0  0  0  0  0
    9.1200   -5.8135    0.0000 C   0  0  0  0  0  0  0  0  0  0  0  0
    6.9797   -7.0523    0.0000 C   0  0  0  0  0  0  0  0  0  0  0  0
    6.2674   -5.8101    0.0000 C   0  0  0  0  0  0  0  0  0  0  0  0
    6.9833   -4.5786    0.0000 C   0  0  0  0  0  0  0  0  0  0  0  0
    7.6955   -7.4627    0.0000 O   0  0  0  0  0  0  0  0  0  0  0  0
    9.1200   -7.4627    0.0000 C   0  0  0  0  0  0  0  0  0  0  0  0
    9.8289   -6.2242    0.0000 C   0  0  0  0  0  0  0  0  0  0  0  0
    9.1200   -4.9891    0.0000 O   0  0  0  0  0  0  0  0  0  0  0  0
    6.2674   -4.9891    0.0000 C   0  0  0  0  0  0  0  0  0  0  0  0
    6.9867   -3.7575    0.0000 C   0  0  0  0  0  0  0  0  0  0  0  0
    9.8289   -7.0523    0.0000 C   0  0  0  0  0  0  0  0  0  0  0  0
   10.5411   -7.4627    0.0000 C   0  0  0  0  0  0  0  0  0  0  0  0
   11.2569   -7.0487    0.0000 C   0  0  0  0  0  0  0  0  0  0  0  0
   11.9656   -7.4593    0.0000 C   0  0  0  0  0  0  0  0  0  0  0  0
   12.6814   -7.0487    0.0000 C   0  0  0  0  0  0  0  0  0  0  0  0
   13.3901   -7.4593    0.0000 C   0  0  0  0  0  0  0  0  0  0  0  0
    8.3657   -5.3925    0.0000 H   0  0  0  0  0  0  0  0  0  0  0  0
    6.1587   -6.7681    0.0000 H   0  0  0  0  0  0  0  0  0  0  0  0
    6.9797   -7.8773    0.0000 C   0  0  0  0  0  0  0  0  0  0  0  0
    6.2652   -7.4648    0.0000 C   0  0  0  0  0  0  0  0  0  0  0  0
  1  2  1  0  0  0  0
  1  3  1  0  0  0  0
  1  4  1  0  0  0  0
  2  5  2  0  0  0  0
  2  6  1  0  0  0  0
  3  7  1  0  0  0  0
  3  8  1  0  0  0  0
  4  9  2  0  0  0  0
  5 10  1  0  0  0  0
  5 11  1  0  0  0  0
  6 12  2  0  0  0  0
  6 13  1  0  0  0  0
  8 14  1  0  0  0  0
  9 15  1  0  0  0  0
 11 16  2  0  0  0  0
 16 17  1  0  0  0  0
 17 18  1  0  0  0  0
 18 19  1  0  0  0  0
 19 20  1  0  0  0  0
 20 21  1  0  0  0  0
  7 10  1  0  0  0  0
  9 14  1  0  0  0  0
 12 16  1  0  0  0  0
  1 22  1  6  0  0  0
  3 23  1  1  0  0  0
  7 24  1  0  0  0  0
  7 25  1  0  0  0  0
M  END
> <ID>
CHEBI:66964

> <NAME>
Delta(9)-tetrahydrocannabinol

> <DEFINITION>
A diterpenoid that is 6a,7,8,10a-tetrahydro-6H-benzo[c]chromene substituted at position 1 by a hydroxy group, positions 6, 6 and 9 by methyl groups and at position 3 by a pentyl group. The principal psychoactive constituent of the cannabis plant, it is used for treatment of anorexia associated with AIDS as well as nausea and vomiting associated with cancer chemotherapy.

> <STAR>
3

> <SECONDARY_ID>
CHEBI:4716

> <SYNONYM>
Tetrahydrocannabinol; Dronabinolum; Dronabinol; Delta(9)-THC; Delta(9)-tetrahydrocannabinol; delta9-Tetrahydrocannabinol; Delta(1)-tetrahydrocannabinol; 6,6,9-Trimethyl-3-pentyl-6a,7,8,10a-tetrahydro-6H-benzo[c]chromen-1-ol; 3-Pentyl-6,6,9-trimethyl-6a,7,8,10a-tetrahydro-6H-dibenzo(b,d)pyran-1-ol; 1-trans-delta-9-Tetrahydrocannabinol; (-)-delta9-trans-Tetrahydrocannabinol

> <IUPAC_NAME>
(6aR,10aR)-6,6,9-trimethyl-3-pentyl-6a,7,8,10a-tetrahydro-6H-benzo[c]chromen-1-ol

> <INN>
dronabinol

> <BRAND_NAME>
Syndros

> <FORMULA>
C21H30O2

> <MASS>
314.46170

> <MONOISOTOPIC_MASS>
314.22458

> <CHARGE>
0

> <SMILES>
[H][C@@]12CCC(C)=C[C@@]1([H])c1c(O)cc(CCCCC)cc1OC2(C)C

> <INCHI>
InChI=1S/C21H30O2/c1-5-6-7-8-15-12-18(22)20-16-11-14(2)9-10-17(16)21(3,4)23-19(20)13-15/h11-13,16-17,22H,5-10H2,1-4H3/t16-,17-/m1/s1

> <INCHIKEY>
CYQFCXCEBYINGO-IAGOWNOFSA-N

> <CAS_REGISTRY_NUMBER>
1972-08-3

> <REAXYS_REGISTRY_NUMBER>
4354308

> <CHEMIDPLUS>
1972-08-3

> <DRUGBANK_ACCESSION>
DB00470

> <HMDB_ACCESSION>
HMDB0041865

> <KEGG_COMPOUND_ACCESSION>
C06972

> <KEGG_DRUG_ACCESSION>
D00306

> <KNAPSACK_ACCESSION>
C00002675

> <METACYC_ACCESSION>
CPD-7172

> <NIST_CHEMISTRY_WEBBOOK>
1972-08-3

> <PDBECHEM_ACCESSION>
TCI

> <WIKIPEDIA_ACCESSION>
Tetrahydrocannabinol

> <PUBMED_CITATION>
15190053; 16511162; 21310551; 21590520; 21671456; 21803011; 22260337; 22288893; 22305029; 22491047; 22553980; 22680341; 22722508; 22807156

$$$$

Marvin  08061213502D          

 47 49  0  0  1  0            999 V2000
    7.9956  -11.2840    0.0000 C   0  0  2  0  0  0  0  0  0  0  0  0
    7.9956  -12.1090    0.0000 C   0  0  1  0  0  0  0  0  0  0  0  0
    8.7081  -12.5152    0.0000 C   0  0  1  0  0  0  0  0  0  0  0  0
    9.4205  -12.1090    0.0000 C   0  0  2  0  0  0  0  0  0  0  0  0
    9.4205  -11.2840    0.0000 C   0  0  1  0  0  0  0  0  0  0  0  0
    8.7081  -10.8654    0.0000 O   0  0  0  0  0  0  0  0  0  0  0  0
   10.1325  -10.8716    0.0000 O   0  0  0  0  0  0  0  0  0  0  0  0
   10.1307  -12.5204    0.0000 O   0  0  0  0  0  0  0  0  0  0  0  0
    8.7081  -13.3402    0.0000 O   0  0  0  0  0  0  0  0  0  0  0  0
    7.2811  -12.5204    0.0000 O   0  0  0  0  0  0  0  0  0  0  0  0
    7.2793  -10.8716    0.0000 C   0  0  0  0  0  0  0  0  0  0  0  0
    9.4242   -8.8156    0.0000 C   0  0  2  0  0  0  0  0  0  0  0  0
    9.4242   -9.6404    0.0000 C   0  0  1  0  0  0  0  0  0  0  0  0
   10.1325  -10.0467    0.0000 C   0  0  1  0  0  0  0  0  0  0  0  0
   10.8451   -9.6404    0.0000 C   0  0  2  0  0  0  0  0  0  0  0  0
   10.8451   -8.8156    0.0000 C   0  0  2  0  0  0  0  0  0  0  0  0
   10.1325   -8.3969    0.0000 O   0  0  0  0  0  0  0  0  0  0  0  0
   11.5611   -8.4031    0.0000 O   0  0  0  0  0  0  0  0  0  0  0  0
    8.7081   -8.4031    0.0000 C   0  0  0  0  0  0  0  0  0  0  0  0
    8.7056   -7.5781    0.0000 O   0  0  0  0  0  0  0  0  0  0  0  0
   11.5594  -10.0518    0.0000 N   0  0  0  0  0  0  0  0  0  0  0  0
    8.7099  -10.0518    0.0000 O   0  0  0  0  0  0  0  0  0  0  0  0
   11.5582  -10.8767    0.0000 C   0  0  0  0  0  0  0  0  0  0  0  0
   12.2727  -11.2923    0.0000 C   0  0  0  0  0  0  0  0  0  0  0  0
   10.8427  -11.2903    0.0000 O   0  0  0  0  0  0  0  0  0  0  0  0
    7.9662   -7.1516    0.0000 C   0  0  2  0  0  0  0  0  0  0  0  0
    7.2551   -6.7248    0.0000 O   0  0  0  0  0  0  0  0  0  0  0  0
    7.9662   -7.9764    0.0000 C   0  0  0  0  0  0  0  0  0  0  0  0
    7.2551   -8.4031    0.0000 C   0  0  1  0  0  0  0  0  0  0  0  0
    6.5157   -7.9764    0.0000 C   0  0  1  0  0  0  0  0  0  0  0  0
    7.2551   -9.2278    0.0000 O   0  0  0  0  0  0  0  0  0  0  0  0
    5.7953   -6.7410    0.0000 C   0  0  1  0  0  0  0  0  0  0  0  0
    5.0612   -7.1759    0.0000 C   0  0  1  0  0  0  0  0  0  0  0  0
    4.2782   -6.7472    0.0000 C   0  0  0  0  0  0  0  0  0  0  0  0
    3.5197   -7.1966    0.0000 O   0  0  0  0  0  0  0  0  0  0  0  0
    6.5297   -6.1918    0.0000 H   0  0  0  0  0  0  0  0  0  0  0  0
    5.7953   -5.8484    0.0000 O   0  0  0  0  0  0  0  0  0  0  0  0
    5.7762   -8.4031    0.0000 N   0  0  0  0  0  0  0  0  0  0  0  0
    5.7762   -9.2846    0.0000 C   0  0  0  0  0  0  0  0  0  0  0  0
    5.0083   -9.7113    0.0000 C   0  0  0  0  0  0  0  0  0  0  0  0
    6.5157   -9.7113    0.0000 O   0  0  0  0  0  0  0  0  0  0  0  0
    8.3927   -6.4964    0.0000 C   0  0  0  0  0  0  0  0  0  0  0  0
    9.2460   -6.4964    0.0000 O   0  0  0  0  0  0  0  0  0  0  0  0
    7.9662   -5.7570    0.0000 O   0  0  0  0  0  0  0  0  0  0  0  0
    5.0612   -8.0051    0.0000 O   0  0  0  0  0  0  0  0  0  0  0  0
    6.5157   -7.1516    0.0000 C   0  0  2  0  0  0  0  0  0  0  0  0
    6.5658  -11.2854    0.0000 O   0  0  0  0  0  0  0  0  0  0  0  0
  5  7  1  1  0  0  0
  2  1  1  0  0  0  0
  4  8  1  6  0  0  0
  1  6  1  0  0  0  0
 12 17  1  0  0  0  0
 13 14  1  0  0  0  0
 14 15  1  0  0  0  0
 15 16  1  0  0  0  0
 16 17  1  0  0  0  0
  3  9  1  1  0  0  0
 16 18  1  6  0  0  0
 14  7  1  1  0  0  0
  3  2  1  0  0  0  0
 12 19  1  1  0  0  0
  2 10  1  1  0  0  0
 19 20  1  0  0  0  0
  4  3  1  0  0  0  0
 15 21  1  6  0  0  0
  1 11  1  1  0  0  0
 13 22  1  1  0  0  0
  5  4  1  0  0  0  0
 21 23  1  0  0  0  0
 23 24  1  0  0  0  0
 12 13  1  0  0  0  0
 23 25  2  0  0  0  0
  5  6  1  0  0  0  0
 26 27  1  0  0  0  0
 26 28  1  0  0  0  0
 27 46  1  0  0  0  0
 28 29  1  0  0  0  0
 46 30  1  0  0  0  0
 29 31  1  6  0  0  0
 29 30  1  0  0  0  0
 32 33  1  0  0  0  0
 33 34  1  0  0  0  0
 34 35  1  0  0  0  0
 46 36  1  1  0  0  0
 32 37  1  1  0  0  0
 30 38  1  1  0  0  0
 38 39  1  0  0  0  0
 39 40  1  0  0  0  0
 39 41  2  0  0  0  0
 26 42  1  0  0  0  0
 26 20  1  1  0  0  0
 42 43  2  0  0  0  0
 42 44  1  0  0  0  0
 33 45  1  6  0  0  0
 32 46  1  0  0  0  0
 11 47  1  0  0  0  0
M  END
> <ID>
CHEBI:67002

> <NAME>
beta-D-Galp-(1->3)-[beta-Neup5Ac-(2->6)]-alpha-D-GalpNAc

> <DEFINITION>
A branched amino trisaccharide that consists of N-acetyl-α-D-galactosamine having a β-D-galactosyl residue attached at the 3-position and a β-N-acetylneuraminosyl residue attached at the 6-position.

> <STAR>
3

> <SYNONYM>
Neu5Acbeta2-6(Galbeta1-3)GalNAcalpha; Neu5Acb2-6(Galb1-3)GalNAca; Galbeta1->3(Neu5Acbeta2->6)GalNAcalpha; Galbeta1-3(Neu5Acbeta2-6)GalNAcalpha; beta-Neup5Ac-(2->6)-[beta-D-Galp-(1->3)]-alpha-D-GalpNAc; beta-Neu5Ac-(2->6)-[beta-D-Gal-(1->3)]-alpha-D-GalNAc; beta-N-acetylneuraminosyl-(2->6)-[beta-D-galactosyl-(1->3)]-N-acetyl-alpha-D-galactosamine; beta-D-galactosyl-(1->3)-[beta-N-acetylneuraminosyl-(2->6)]-N-acetyl-alpha-D-galactosamine; beta-D-Gal-(1->3)-[beta-Neu5Ac-(2->6)]-alpha-D-GalNAc

> <IUPAC_NAME>
5-acetamido-3,5-dideoxy-D-glycero-beta-D-galacto-non-2-ulopyranonosyl-(2->6)-[beta-D-galactopyranosyl-(1->3)]-2-acetamido-2-deoxy-alpha-D-galactopyranose

> <FORMULA>
C25H42N2O19

> <MASS>
674.60300

> <MONOISOTOPIC_MASS>
674.23818

> <CHARGE>
0

> <SMILES>
[H][C@]1(O[C@](C[C@H](O)[C@H]1NC(C)=O)(OC[C@H]1O[C@H](O)[C@H](NC(C)=O)[C@@H](O[C@@H]2O[C@H](CO)[C@H](O)[C@H](O)[C@H]2O)[C@H]1O)C(O)=O)[C@H](O)[C@H](O)CO

> <INCHI>
InChI=1S/C25H42N2O19/c1-7(30)26-13-9(32)3-25(24(40)41,46-21(13)15(34)10(33)4-28)42-6-12-17(36)20(14(22(39)43-12)27-8(2)31)45-23-19(38)18(37)16(35)11(5-29)44-23/h9-23,28-29,32-39H,3-6H2,1-2H3,(H,26,30)(H,27,31)(H,40,41)/t9-,10+,11+,12+,13+,14+,15+,16-,17-,18-,19+,20+,21+,22-,23-,25-/m0/s1

> <INCHIKEY>
WGMXQFVVADPLGR-IXQOGYPSSA-N

> <PUBMED_CITATION>
19443021; 19695255; 25568069; 31537530

$$$$

Marvin  08101209382D          

 39 41  0  0  1  0            999 V2000
   12.1996   -3.9348    0.0000 C   0  0  1  0  0  0  0  0  0  0  0  0
   12.9140   -3.5223    0.0000 C   0  0  2  0  0  0  0  0  0  0  0  0
   12.1996   -4.7595    0.0000 O   0  0  0  0  0  0  0  0  0  0  0  0
   11.4852   -3.5223    0.0000 C   0  0  1  0  0  0  0  0  0  0  0  0
   12.9140   -2.6973    0.0000 C   0  0  0  0  0  0  0  0  0  0  0  0
   11.4852   -2.6973    0.0000 C   0  0  2  0  0  0  0  0  0  0  0  0
   10.7705   -3.9348    0.0000 O   0  0  0  0  0  0  0  0  0  0  0  0
   12.1996   -2.2848    0.0000 O   0  0  0  0  0  0  0  0  0  0  0  0
   13.6284   -2.2848    0.0000 O   0  0  0  0  0  0  0  0  0  0  0  0
   10.7705   -2.2848    0.0000 C   0  0  0  0  0  0  0  0  0  0  0  0
   13.6284   -3.9348    0.0000 N   0  0  0  0  0  0  0  0  0  0  0  0
   14.3430   -3.5223    0.0000 C   0  0  0  0  0  0  0  0  0  0  0  0
   15.0574   -3.9348    0.0000 C   0  0  0  0  0  0  0  0  0  0  0  0
   14.3430   -2.6973    0.0000 O   0  0  0  0  0  0  0  0  0  0  0  0
   10.7705   -1.4598    0.0000 O   0  0  0  0  0  0  0  0  0  0  0  0
    8.6271   -2.6970    0.0000 C   0  0  2  0  0  0  0  0  0  0  0  0
    8.6271   -3.5220    0.0000 C   0  0  1  0  0  0  0  0  0  0  0  0
   10.0561   -3.5223    0.0000 C   0  0  2  0  0  0  0  0  0  0  0  0
   10.0561   -2.6973    0.0000 O   0  0  0  0  0  0  0  0  0  0  0  0
    9.3416   -3.9345    0.0000 C   0  0  2  0  0  0  0  0  0  0  0  0
    9.3416   -2.2845    0.0000 C   0  0  2  0  0  0  0  0  0  0  0  0
    9.3416   -4.7595    0.0000 N   0  0  0  0  0  0  0  0  0  0  0  0
    7.9127   -3.9345    0.0000 O   0  0  0  0  0  0  0  0  0  0  0  0
    7.9127   -2.2848    0.0000 O   0  0  0  0  0  0  0  0  0  0  0  0
    9.3416   -1.4598    0.0000 C   0  0  0  0  0  0  0  0  0  0  0  0
    8.6272   -1.0473    0.0000 O   0  0  0  0  0  0  0  0  0  0  0  0
    7.1981   -2.6970    0.0000 O   0  0  0  0  0  0  0  0  0  0  0  0
    6.4835   -2.2845    0.0000 C   0  0  2  0  0  0  0  0  0  0  0  0
    7.1981   -3.5221    0.0000 C   0  0  2  0  0  0  0  0  0  0  0  0
    6.4837   -3.9345    0.0000 C   0  0  2  0  0  0  0  0  0  0  0  0
    5.7693   -3.5220    0.0000 C   0  0  1  0  0  0  0  0  0  0  0  0
    5.7691   -2.6970    0.0000 C   0  0  2  0  0  0  0  0  0  0  0  0
    6.4837   -4.7595    0.0000 O   0  0  0  0  0  0  0  0  0  0  0  0
    5.0545   -3.9345    0.0000 O   0  0  0  0  0  0  0  0  0  0  0  0
    5.0546   -2.2845    0.0000 O   0  0  0  0  0  0  0  0  0  0  0  0
    6.4837   -1.4595    0.0000 C   0  0  0  0  0  0  0  0  0  0  0  0
    8.6271   -5.1720    0.0000 C   0  0  0  0  0  0  0  0  0  0  0  0
    8.6269   -5.9970    0.0000 O   0  0  0  0  0  0  0  0  0  0  0  0
    7.9127   -4.7595    0.0000 C   0  0  0  0  0  0  0  0  0  0  0  0
  1  2  1  0  0  0  0
  1  3  1  1  0  0  0
  1  4  1  0  0  0  0
  2  5  1  0  0  0  0
  2 11  1  6  0  0  0
  4  6  1  0  0  0  0
  4  7  1  6  0  0  0
  5  8  1  0  0  0  0
  5  9  1  0  0  0  0
  6 10  1  1  0  0  0
  6  8  1  0  0  0  0
 11 12  1  0  0  0  0
 12 13  1  0  0  0  0
 12 14  2  0  0  0  0
 10 15  1  0  0  0  0
 16 24  1  1  0  0  0
 17 16  1  0  0  0  0
 17 23  1  1  0  0  0
 18 19  1  0  0  0  0
 18 20  1  0  0  0  0
 20 17  1  0  0  0  0
 20 22  1  6  0  0  0
 21 16  1  0  0  0  0
 19 21  1  0  0  0  0
 21 25  1  1  0  0  0
 25 26  1  0  0  0  0
 18  7  1  1  0  0  0
 28 27  1  0  0  0  0
 29 27  1  0  0  0  0
 29 23  1  1  0  0  0
 29 30  1  0  0  0  0
 30 33  1  1  0  0  0
 30 31  1  0  0  0  0
 31 34  1  6  0  0  0
 31 32  1  0  0  0  0
 32 28  1  0  0  0  0
 32 35  1  6  0  0  0
 28 36  1  6  0  0  0
 38 37  2  0  0  0  0
 39 37  1  0  0  0  0
 22 37  1  0  0  0  0
M  END
> <ID>
CHEBI:67102

> <NAME>
alpha-L-Fucp-(1->3)-beta-D-GalpNAc-(1->4)-D-GlcpNAc

> <DEFINITION>
A linear amino trisaccharide consisting of α-L-fucose,N-acetyl-β-D-galactosamine and N-acetyl-D-glucosamine residues joined in sequence by (1→3)- and (1→4)-linkages respectively.

> <STAR>
3

> <SYNONYM>
Fuc(alpha1-3)GalNAc(beta1-4)GlcNAc; F-LDN; alpha-L-fucosyl-(1->3)-N-acetyl-beta-D-galactosaminyl-(1->4)-N-acetyl-D-glucosamine; alpha-L-Fuc-(1->3)-beta-D-GalNAc-(1->4)-D-GlcNAc; 6-deoxy-alpha-L-galactopyranosyl-(1->3)-2-acetamido-2-deoxy-beta-D-galactopyranosyl-(1->4)-2-acetamido-2-deoxy-D-glucopyranose

> <IUPAC_NAME>
L-fucopyranosyl-(1->3)-2-acetamido-2-deoxy-beta-D-galactopyranosyl-(1->4)-2-acetamido-2-deoxy-D-glucopyranose

> <FORMULA>
C22H38N2O15

> <MASS>
570.54150

> <MONOISOTOPIC_MASS>
570.22722

> <CHARGE>
0

> <SMILES>
C[C@@H]1O[C@@H](O[C@H]2[C@@H](O)[C@@H](CO)O[C@@H](O[C@H]3[C@H](O)[C@@H](NC(C)=O)C(O)O[C@@H]3CO)[C@@H]2NC(C)=O)[C@@H](O)[C@H](O)[C@@H]1O

> <INCHI>
InChI=1S/C22H38N2O15/c1-6-13(29)16(32)17(33)22(35-6)39-19-12(24-8(3)28)21(37-9(4-25)14(19)30)38-18-10(5-26)36-20(34)11(15(18)31)23-7(2)27/h6,9-22,25-26,29-34H,4-5H2,1-3H3,(H,23,27)(H,24,28)/t6-,9+,10+,11+,12+,13+,14-,15+,16+,17-,18+,19+,20?,21-,22-/m0/s1

> <INCHIKEY>
OFJQNHAXUHJWDT-HRVOHQSGSA-N

> <PUBMED_CITATION>
22241826

$$$$

Marvin  08201214492D          

 25 26  0  0  1  0            999 V2000
   20.7800  -26.2238    0.0000 O   0  0  0  0  0  0  0  0  0  0  0  0
   20.0655  -26.6363    0.0000 C   0  0  2  0  0  0  0  0  0  0  0  0
   20.0655  -27.4613    0.0000 C   0  0  2  0  0  0  0  0  0  0  0  0
   19.3510  -26.2238    0.0000 O   0  0  0  0  0  0  0  0  0  0  0  0
   19.3511  -27.8738    0.0000 C   0  0  1  0  0  0  0  0  0  0  0  0
   18.6365  -26.6364    0.0000 C   0  0  2  0  0  0  0  0  0  0  0  0
   18.6366  -27.4614    0.0000 C   0  0  1  0  0  0  0  0  0  0  0  0
   20.7800  -27.8738    0.0000 O   0  0  0  0  0  0  0  0  0  0  0  0
   19.3511  -28.6988    0.0000 O   0  0  0  0  0  0  0  0  0  0  0  0
   17.9221  -27.8739    0.0000 O   0  0  0  0  0  0  0  0  0  0  0  0
   17.9221  -26.2239    0.0000 C   0  0  0  0  0  0  0  0  0  0  0  0
   21.4945  -24.1613    0.0000 C   0  0  1  0  0  0  0  0  0  0  0  0
   21.4945  -24.9863    0.0000 C   0  0  1  0  0  0  0  0  0  0  0  0
   20.7800  -23.7488    0.0000 O   0  0  0  0  0  0  0  0  0  0  0  0
   20.7800  -25.3988    0.0000 C   0  0  2  0  0  0  0  0  0  0  0  0
   20.0655  -24.1613    0.0000 C   0  0  1  0  0  0  0  0  0  0  0  0
   20.0655  -24.9863    0.0000 C   0  0  1  0  0  0  0  0  0  0  0  0
   22.2090  -23.7488    0.0000 O   0  0  0  0  0  0  0  0  0  0  0  0
   22.2090  -25.3988    0.0000 N   0  0  0  0  0  0  0  0  0  0  0  0
   19.3511  -25.3988    0.0000 O   0  0  0  0  0  0  0  0  0  0  0  0
   19.3511  -23.7488    0.0000 C   0  0  0  0  0  0  0  0  0  0  0  0
   18.6366  -24.1613    0.0000 O   0  0  0  0  0  0  0  0  0  0  0  0
   22.2090  -26.2238    0.0000 C   0  0  0  0  0  0  0  0  0  0  0  0
   22.9235  -26.6364    0.0000 C   0  0  0  0  0  0  0  0  0  0  0  0
   21.4945  -26.6363    0.0000 O   0  0  0  0  0  0  0  0  0  0  0  0
  2  3  1  0  0  0  0
  2  4  1  0  0  0  0
  3  5  1  0  0  0  0
  4  6  1  0  0  0  0
  5  7  1  0  0  0  0
  6  7  1  0  0  0  0
  3  8  1  1  0  0  0
  5  9  1  6  0  0  0
  7 10  1  6  0  0  0
  6 11  1  6  0  0  0
  2  1  1  6  0  0  0
 12 13  1  0  0  0  0
 12 14  1  0  0  0  0
 13 15  1  0  0  0  0
 14 16  1  0  0  0  0
 15 17  1  0  0  0  0
 16 17  1  0  0  0  0
 12 18  1  1  0  0  0
 13 19  1  6  0  0  0
 15  1  1  1  0  0  0
 17 20  1  6  0  0  0
 16 21  1  1  0  0  0
 22 21  1  0  0  0  0
 24 23  1  0  0  0  0
 25 23  2  0  0  0  0
 19 23  1  0  0  0  0
M  END
> <ID>
CHEBI:67166

> <NAME>
beta-L-fucosyl-(1->3)-N-acetyl-beta-D-glucosamine

> <DEFINITION>
An amino disaccharide consisting of a β-L-fucosyl residue attached to N-acetyl-β-Dglucosamine by a (1→3)-glycosidic linkage.

> <STAR>
3

> <SYNONYM>
Fucbeta1-3GlcNAcbeta; Fucb1-3GlcNAcb; beta-L-Fucp-(1->3)-beta-D-GlcpNAc; beta-L-Fuc-(1->3)-beta-D-GlcNAc; beta-L-Fuc-(1-3)-beta-D-GlcNAc; 2-acetamido-2-deoxy-3-O-(beta-L-fucopyranosyl)-beta-D-glucopyranose; 2-acetamido-2-deoxy-3-O-(6-deoxy-beta-L-galactopyranosyl)-beta-D-glucopyranose; 2-(acetylamino)-2-deoxy-3-O-(beta-L-fucopyranosyl)-beta-D-glucopyranose; 2-(acetylamino)-2-deoxy-3-O-(6-deoxy-beta-L-galactopyranosyl)-beta-D-glucopyranose

> <IUPAC_NAME>
beta-L-fucopyranosyl-(1->3)-2-acetamido-2-deoxy-beta-D-glucopyranose

> <FORMULA>
C14H25NO10

> <MASS>
367.34900

> <MONOISOTOPIC_MASS>
367.14785

> <CHARGE>
0

> <SMILES>
C[C@@H]1O[C@H](O[C@H]2[C@H](O)[C@@H](CO)O[C@@H](O)[C@@H]2NC(C)=O)[C@@H](O)[C@H](O)[C@@H]1O

> <INCHI>
InChI=1S/C14H25NO10/c1-4-8(18)10(20)11(21)14(23-4)25-12-7(15-5(2)17)13(22)24-6(3-16)9(12)19/h4,6-14,16,18-22H,3H2,1-2H3,(H,15,17)/t4-,6+,7+,8+,9+,10+,11-,12+,13+,14+/m0/s1

> <INCHIKEY>
TUXVLTYUDHJDAL-HXHDFNKUSA-N

> <PUBMED_CITATION>
19443021; 25568069; 31537530

$$$$

Marvin  08291216162D          

 20 21  0  0  0  0            999 V2000
    8.9446   -9.6863    0.0000 C   0  0  0  0  0  0  0  0  0  0  0  0
    8.9446  -10.5113    0.0000 C   0  0  0  0  0  0  0  0  0  0  0  0
    8.2301   -9.2738    0.0000 C   0  0  0  0  0  0  0  0  0  0  0  0
    8.2301  -10.9238    0.0000 C   0  0  0  0  0  0  0  0  0  0  0  0
    7.5156   -9.6863    0.0000 C   0  0  0  0  0  0  0  0  0  0  0  0
    7.5156  -10.5113    0.0000 C   0  0  0  0  0  0  0  0  0  0  0  0
    6.8012   -9.2738    0.0000 C   0  0  0  0  0  0  0  0  0  0  0  0
    6.8012   -8.4488    0.0000 N   0  3  0  0  0  0  0  0  0  0  0  0
    7.5157   -7.2113    0.0000 C   0  0  0  0  0  0  0  0  0  0  0  0
    7.5157   -8.0363    0.0000 C   0  0  0  0  0  0  0  0  0  0  0  0
    6.8012   -6.7988    0.0000 C   0  0  0  0  0  0  0  0  0  0  0  0
    6.0867   -7.2113    0.0000 C   0  0  0  0  0  0  0  0  0  0  0  0
    6.0867   -8.0363    0.0000 C   0  0  0  0  0  0  0  0  0  0  0  0
    6.2517   -9.0849    0.0000 C   0  0  0  0  0  0  0  0  0  0  0  0
    9.6591  -10.9238    0.0000 C   0  0  0  0  0  0  0  0  0  0  0  0
    9.6591  -11.7488    0.0000 O   0  0  0  0  0  0  0  0  0  0  0  0
   10.3735  -10.5113    0.0000 N   0  0  0  0  0  0  0  0  0  0  0  0
   11.0880  -10.9239    0.0000 C   0  0  0  0  0  0  0  0  0  0  0  0
   11.8025  -10.5114    0.0000 C   0  0  0  0  0  0  0  0  0  0  0  0
   12.5170  -10.9239    0.0000 O   0  0  0  0  0  0  0  0  0  0  0  0
  2  1  1  0  0  0  0
  3  1  2  0  0  0  0
  4  2  2  0  0  0  0
  5  3  1  0  0  0  0
  6  4  1  0  0  0  0
  6  5  2  0  0  0  0
  5  7  1  0  0  0  0
  7  8  1  0  0  0  0
 10  9  1  0  0  0  0
 11  9  1  0  0  0  0
  8 10  1  0  0  0  0
 12 11  1  0  0  0  0
 13 12  1  0  0  0  0
  8 14  1  0  0  0  0
 13  8  1  0  0  0  0
  2 15  1  0  0  0  0
 15 16  2  0  0  0  0
 15 17  1  0  0  0  0
 17 18  1  0  0  0  0
 18 19  1  0  0  0  0
 19 20  1  0  0  0  0
M  CHG  1   8   1
M  END
> <ID>
CHEBI:67216

> <NAME>
1-{4-[(2-hydroxyethyl)carbamoyl]benzyl}-1-methylpiperidinium

> <DEFINITION>
Benzamide substituted on nitrogen by a 2-hydroxyethyl group and at the 4-position by an (N-methylpiperidinio)methyl group.

> <STAR>
3

> <SECONDARY_ID>
CHEBI:43555

> <SYNONYM>
N-(2-hydroxyethyl)-4-[(N-methylpiperidinio)methyl]benzamide; N-((4'-((hydroxyethyl)carbamido)phenyl)methyl)-N-methylpiperidinium; 1-(4-{[(2-hydroxyethyl)amino]carbonyl}benzyl)-1-methylpiperidinium

> <IUPAC_NAME>
1-{4-[(2-hydroxyethyl)carbamoyl]benzyl}-1-methylpiperidinium

> <FORMULA>
C16H25N2O2

> <MASS>
277.38190

> <MONOISOTOPIC_MASS>
277.19105

> <CHARGE>
1

> <SMILES>
C[N+]1(CCCCC1)Cc1ccc(cc1)C(=O)NCCO

> <INCHI>
InChI=1S/C16H24N2O2/c1-18(10-3-2-4-11-18)13-14-5-7-15(8-6-14)16(20)17-9-12-19/h5-8,19H,2-4,9-13H2,1H3/p+1

> <INCHIKEY>
ICCNPEHLFRGOTO-UHFFFAOYSA-O

> <PDB_ACCESSION>
1UWG

> <PDBECHEM_ACCESSION>
KHA

> <PUBMED_CITATION>
14988504

$$$$

Ketcher 04142015552D 1   1.00000     0.00000     0

 18 19  0     0  0            999 V2000
   13.0707  -16.0667    0.0000 C   0  0  0  0  0  0  0  0  0  0  0  0
   13.7167  -15.3047    0.0000 C   0  0  0  0  0  0  0  0  0  0  0  0
   13.0562  -18.0641    0.0000 N   0  0  0  0  0  0  0  0  0  0  0  0
   12.1992  -16.5632    0.0000 C   0  0  0  0  0  0  0  0  0  0  0  0
   13.9325  -16.5763    0.0000 C   0  0  0  0  0  0  0  0  0  0  0  0
   12.3088  -15.4208    0.0000 C   0  0  0  0  0  0  0  0  0  0  0  0
   13.3766  -14.3633    0.0000 O   0  0  0  0  0  0  0  0  0  0  0  0
   13.0514  -19.0654    0.0000 C   0  0  0  0  0  0  0  0  0  0  0  0
   13.9227  -17.5726    0.0000 C   0  0  0  0  0  0  0  0  0  0  0  0
   12.1992  -17.5597    0.0000 C   0  0  0  0  0  0  0  0  0  0  0  0
   14.7029  -15.4843    0.0000 O   0  0  0  0  0  0  0  0  0  0  0  0
   12.4883  -14.4344    0.0000 C   0  0  0  0  0  0  0  0  0  0  0  0
   11.3623  -15.7564    0.0000 C   0  0  0  0  0  0  0  0  0  0  0  0
   15.3490  -14.7127    0.0000 C   0  0  0  0  0  0  0  0  0  0  0  0
   16.3305  -14.8875    0.0000 C   0  0  0  0  0  0  0  0  0  0  0  0
   11.7308  -13.7839    0.0000 C   0  0  0  0  0  0  0  0  0  0  0  0
   10.6055  -15.0961    0.0000 C   0  0  0  0  0  0  0  0  0  0  0  0
   10.7847  -14.1192    0.0000 C   0  0  0  0  0  0  0  0  0  0  0  0
  2  1  1  0     0  0
  4  1  1  0     0  0
  5  1  1  0     0  0
  6  1  1  0     0  0
  7  2  2  0     0  0
 11  2  1  0     0  0
  9  3  1  0     0  0
  8  3  1  0     0  0
 10  3  1  0     0  0
 10  4  1  0     0  0
  9  5  1  0     0  0
 12  6  2  0     0  0
 13  6  1  0     0  0
 14 11  1  0     0  0
 16 12  1  0     0  0
 17 13  2  0     0  0
 15 14  1  0     0  0
 18 16  2  0     0  0
 18 17  1  0     0  0
M  END
> <ID>
CHEBI:6754

> <NAME>
pethidine

> <DEFINITION>
A piperidinecarboxylate ester that is piperidine which is substituted by a methyl group at position 1 and by phenyl and ethoxycarbonyl groups at position 4. It is an analgesic which is used for the treatment of moderate to severe pain, including postoperative pain and labour pain.

> <STAR>
3

> <SYNONYM>
phetidine; petydyna; pethidineter; pethidin; N-methyl-4-phenyl-4-carbethoxypiperidine; methyl phenylpiperidine carbonic acid ethyl ester; meperidine; meperidina; isonipecaine; isonipecaine; IDS-NP-001; ethyl 1-methyl-4-phenylisonipecotate; 1-methyl-4-phenylpiperidine-4-carboxylic acid ethyl ester; 1-methyl-4-phenylisonipecotic acid ethyl ester; 1-methyl-4-phenyl-4-piperidinecarboxylic acid ethyl ester

> <IUPAC_NAME>
ethyl 1-methyl-4-phenylpiperidine-4-carboxylate

> <INN>
petidina; pethidinum; pethidine; pethidine

> <BRAND_NAME>
Pethanol; Nemerol; Meperidol; Demerol

> <FORMULA>
C15H21NO2

> <MASS>
247.338

> <MONOISOTOPIC_MASS>
247.15723

> <CHARGE>
0

> <SMILES>
C1(C(=O)OCC)(CCN(CC1)C)C2=CC=CC=C2

> <INCHI>
InChI=1S/C15H21NO2/c1-3-18-14(17)15(9-11-16(2)12-10-15)13-7-5-4-6-8-13/h4-8H,3,9-12H2,1-2H3

> <INCHIKEY>
XADCESSVHJOZHK-UHFFFAOYSA-N

> <CAS_REGISTRY_NUMBER>
57-42-1

> <CHEMIDPLUS>
57-42-1

> <DRUGBANK_ACCESSION>
DB00454

> <HMDB_ACCESSION>
HMDB0014597

> <KEGG_COMPOUND_ACCESSION>
C07128

> <KEGG_DRUG_ACCESSION>
D08343

> <NIST_CHEMISTRY_WEBBOOK>
57-42-1

> <WIKIPEDIA_ACCESSION>
Pethidine

> <PUBMED_CITATION>
27621675; 28666300; 29880084; 30115484; 30362203; 30386603; 30418234; 30487674; 30786304; 30902024; 30902579; 31001434; 31294134; 31319637; 31423145; 31486253; 31633090; 31874879; 32001961; 32214301

$$$$

Marvin  03060611312D          
 
 11 11  0  0  0  0            999 V2000
   -0.3852    0.2341    0.0000 C   0  0  0  0  0  0  0  0  0  0  0  0
    0.3293    0.6466    0.0000 C   0  0  0  0  0  0  0  0  0  0  0  0
   -0.3852   -0.5909    0.0000 C   0  0  0  0  0  0  0  0  0  0  0  0
   -1.0997    0.6466    0.0000 C   0  0  0  0  0  0  0  0  0  0  0  0
    1.0437    0.2341    0.0000 C   0  0  1  0  0  0  0  0  0  0  0  0
   -1.0997   -1.0034    0.0000 C   0  0  0  0  0  0  0  0  0  0  0  0
   -1.8142    0.2341    0.0000 C   0  0  0  0  0  0  0  0  0  0  0  0
    1.7582    0.6466    0.0000 N   0  0  0  0  0  0  0  0  0  0  0  0
    1.0437   -0.5909    0.0000 C   0  0  0  0  0  0  0  0  0  0  0  0
   -1.8142   -0.5909    0.0000 C   0  0  0  0  0  0  0  0  0  0  0  0
    2.4727    0.2341    0.0000 C   0  0  0  0  0  0  0  0  0  0  0  0
  1  2  1  0  0  0  0
  1  3  1  0  0  0  0
  1  4  2  0  0  0  0
  2  5  1  0  0  0  0
  3  6  2  0  0  0  0
  4  7  1  0  0  0  0
  5  8  1  0  0  0  0
  5  9  1  1  0  0  0
  6 10  1  0  0  0  0
  8 11  1  0  0  0  0
  7 10  2  0  0  0  0
M  END
> <ID>
CHEBI:6809

> <NAME>
methamphetamine

> <DEFINITION>
A member of the class of amphetamines in which the amino group of (S)-amphetamine carries a methyl substituent.

> <STAR>
3

> <SYNONYM>
methyl-beta-phenylisopropylamine; Methamphetamine; dextromethamphetamine; d-phenylisopropylmethylamine; d-N-methylamphetamine; d-desoxyephedrine; d-deoxyephedrine; d-1-phenyl-2-methylaminopropane; (S)-N,alpha-dimethylbenzeneethanamine; (alphaS)-N,alpha-dimethylbenzeneethanamine; (+)-(S)-N-alpha-dimethylphenethylamine

> <IUPAC_NAME>
(2S)-N-methyl-1-phenylpropan-2-amine

> <INN>
metanfetamina; metamfetaminum; metamfetamine; metamfetamine

> <FORMULA>
C10H15N

> <MASS>
149.23284

> <MONOISOTOPIC_MASS>
149.12045

> <CHARGE>
0

> <SMILES>
CN[C@@H](C)Cc1ccccc1

> <INCHI>
InChI=1S/C10H15N/c1-9(11-2)8-10-6-4-3-5-7-10/h3-7,9,11H,8H2,1-2H3/t9-/m0/s1

> <INCHIKEY>
MYWUZJCMWCOHBA-VIFPVBQESA-N

> <BEILSTEIN_REGISTRY_NUMBER>
2207147

> <CAS_REGISTRY_NUMBER>
537-46-2

> <REAXYS_REGISTRY_NUMBER>
2207147

> <CHEMIDPLUS>
537-46-2

> <DRUGBANK_ACCESSION>
DB01577

> <HMDB_ACCESSION>
HMDB0015517

> <KEGG_COMPOUND_ACCESSION>
C07164

> <KEGG_DRUG_ACCESSION>
D08187

> <NIST_CHEMISTRY_WEBBOOK>
537-46-2

> <PDBECHEM_ACCESSION>
B40

> <WIKIPEDIA_ACCESSION>
Methamphetamine

> <PUBMED_CITATION>
11221576; 11406298; 11711870; 11717374; 11829406; 11831503; 11847428; 11896153; 11984857; 14645148; 14769818; 15380623; 15542724; 15542728; 15808793; 18279499; 18509037; 18521756; 18991860; 18991862; 19269222; 19384581; 19576287; 19732271; 24349338; 25724762; 26302754; 26541330; 26568405; 26683901; 26775284; 26992824; 27232669

$$$$

Marvin  09101217112D          

 37 39  0  0  1  0            999 V2000
    8.4669  -10.1187    0.0000 C   0  0  1  0  0  0  0  0  0  0  0  0
    8.4669  -10.9437    0.0000 C   0  0  1  0  0  0  0  0  0  0  0  0
    7.7524   -9.7062    0.0000 O   0  0  0  0  0  0  0  0  0  0  0  0
    7.7524  -11.3562    0.0000 C   0  0  2  0  0  0  0  0  0  0  0  0
    7.0379  -10.1187    0.0000 C   0  0  1  0  0  0  0  0  0  0  0  0
    7.0379  -10.9437    0.0000 C   0  0  2  0  0  0  0  0  0  0  0  0
    9.1814   -9.7062    0.0000 O   0  0  0  0  0  0  0  0  0  0  0  0
    9.1814  -11.3562    0.0000 O   0  0  0  0  0  0  0  0  0  0  0  0
    7.7524  -12.1812    0.0000 O   0  0  0  0  0  0  0  0  0  0  0  0
    6.3235  -11.3562    0.0000 O   0  0  0  0  0  0  0  0  0  0  0  0
    6.3235   -9.7062    0.0000 C   0  0  0  0  0  0  0  0  0  0  0  0
    5.6090  -10.1187    0.0000 O   0  0  0  0  0  0  0  0  0  0  0  0
   11.3248   -8.4687    0.0000 C   0  0  1  0  0  0  0  0  0  0  0  0
   11.3248   -9.2937    0.0000 C   0  0  1  0  0  0  0  0  0  0  0  0
   10.6103   -8.0562    0.0000 O   0  0  0  0  0  0  0  0  0  0  0  0
   10.6103   -9.7062    0.0000 C   0  0  2  0  0  0  0  0  0  0  0  0
    9.8958   -8.4687    0.0000 C   0  0  1  0  0  0  0  0  0  0  0  0
    9.8958   -9.2937    0.0000 C   0  0  2  0  0  0  0  0  0  0  0  0
   12.0393   -8.0562    0.0000 O   0  0  0  0  0  0  0  0  0  0  0  0
   12.0393   -9.7062    0.0000 O   0  0  0  0  0  0  0  0  0  0  0  0
   10.6103  -10.5312    0.0000 O   0  0  0  0  0  0  0  0  0  0  0  0
    9.1814   -8.0562    0.0000 C   0  0  0  0  0  0  0  0  0  0  0  0
    8.4669   -8.4687    0.0000 O   0  0  0  0  0  0  0  0  0  0  0  0
   12.7538   -5.9937    0.0000 C   0  0  2  0  0  0  0  0  0  0  0  0
   12.7538   -6.8187    0.0000 C   0  0  1  0  0  0  0  0  0  0  0  0
   12.0393   -5.5812    0.0000 O   0  0  0  0  0  0  0  0  0  0  0  0
   12.0393   -7.2312    0.0000 C   0  0  2  0  0  0  0  0  0  0  0  0
   11.3248   -5.9937    0.0000 C   0  0  1  0  0  0  0  0  0  0  0  0
   11.3248   -6.8187    0.0000 C   0  0  2  0  0  0  0  0  0  0  0  0
   13.4683   -5.5812    0.0000 O   0  0  0  0  0  0  0  0  0  0  0  0
   13.4683   -7.2312    0.0000 N   0  0  0  0  0  0  0  0  0  0  0  0
   10.6104   -7.2312    0.0000 O   0  0  0  0  0  0  0  0  0  0  0  0
   10.6104   -5.5812    0.0000 C   0  0  0  0  0  0  0  0  0  0  0  0
    9.8959   -5.9937    0.0000 O   0  0  0  0  0  0  0  0  0  0  0  0
   13.4683   -8.0562    0.0000 C   0  0  0  0  0  0  0  0  0  0  0  0
   14.1827   -8.4687    0.0000 C   0  0  0  0  0  0  0  0  0  0  0  0
   12.7538   -8.4687    0.0000 O   0  0  0  0  0  0  0  0  0  0  0  0
  1  2  1  0  0  0  0
  1  3  1  0  0  0  0
  2  4  1  0  0  0  0
  3  5  1  0  0  0  0
  4  6  1  0  0  0  0
  5  6  1  0  0  0  0
  1  7  1  1  0  0  0
  2  8  1  6  0  0  0
  4  9  1  1  0  0  0
  6 10  1  1  0  0  0
  5 11  1  1  0  0  0
 12 11  1  0  0  0  0
 13 14  1  0  0  0  0
 13 15  1  0  0  0  0
 14 16  1  0  0  0  0
 15 17  1  0  0  0  0
 16 18  1  0  0  0  0
 17 18  1  0  0  0  0
 13 19  1  1  0  0  0
 14 20  1  6  0  0  0
 16 21  1  1  0  0  0
 18  7  1  1  0  0  0
 17 22  1  1  0  0  0
 23 22  1  0  0  0  0
 24 25  1  0  0  0  0
 24 26  1  0  0  0  0
 25 27  1  0  0  0  0
 26 28  1  0  0  0  0
 27 29  1  0  0  0  0
 28 29  1  0  0  0  0
 24 30  1  6  0  0  0
 25 31  1  6  0  0  0
 27 19  1  1  0  0  0
 29 32  1  1  0  0  0
 28 33  1  1  0  0  0
 34 33  1  0  0  0  0
 31 35  1  0  0  0  0
 35 36  1  0  0  0  0
 35 37  2  0  0  0  0
M  END
> <ID>
CHEBI:68426

> <NAME>
beta-D-Galp-(1->4)-beta-D-Galp-(1->3)-alpha-D-GalpNAc

> <DEFINITION>
A linear amino trisaccharide comprised of two β(1→4)-linked galactose residues linked β(1→3) to N-acetyl-α-D-galactosamine.

> <STAR>
3

> <SYNONYM>
Galbeta1-4Galbeta1-3GalNAcalpha; beta-D-galactosyl-(1->4)-beta-D-galactosyl-(1->3)-N-acetyl-alpha-D-galactosamine; beta-D-Gal-(1->4)-beta-D-Gal-(1->3)-alpha-D-GalNAc

> <IUPAC_NAME>
beta-D-galactopyranosyl-(1->4)-beta-D-galactopyranosyl-(1->3)-2-acetamido-2-deoxy-alpha-D-galactopyranose

> <FORMULA>
C20H35NO16

> <MASS>
545.48900

> <MONOISOTOPIC_MASS>
545.19558

> <CHARGE>
0

> <SMILES>
CC(=O)N[C@H]1[C@@H](O)O[C@H](CO)[C@H](O)[C@@H]1O[C@@H]1O[C@H](CO)[C@H](O[C@@H]2O[C@H](CO)[C@H](O)[C@H](O)[C@H]2O)[C@H](O)[C@H]1O

> <INCHI>
InChI=1S/C20H35NO16/c1-5(25)21-9-17(11(27)7(3-23)33-18(9)32)37-20-15(31)13(29)16(8(4-24)35-20)36-19-14(30)12(28)10(26)6(2-22)34-19/h6-20,22-24,26-32H,2-4H2,1H3,(H,21,25)/t6-,7-,8-,9-,10+,11+,12+,13-,14-,15-,16+,17-,18+,19+,20+/m1/s1

> <INCHIKEY>
PQZXWXWLEXPPIT-VCSRLSTLSA-N

> <PUBMED_CITATION>
22461008

$$$$

Marvin  09111217062D          

 50 53  0  0  1  0            999 V2000
    8.6391   -7.8970    0.0000 C   0  0  1  0  0  0  0  0  0  0  0  0
    8.6391   -8.7220    0.0000 C   0  0  1  0  0  0  0  0  0  0  0  0
    7.9247   -7.4845    0.0000 O   0  0  0  0  0  0  0  0  0  0  0  0
    7.9247   -9.1345    0.0000 C   0  0  2  0  0  0  0  0  0  0  0  0
    7.2103   -7.8970    0.0000 C   0  0  1  0  0  0  0  0  0  0  0  0
    7.2103   -8.7220    0.0000 C   0  0  2  0  0  0  0  0  0  0  0  0
    9.3536   -7.4845    0.0000 O   0  0  0  0  0  0  0  0  0  0  0  0
    9.3536   -9.1345    0.0000 O   0  0  0  0  0  0  0  0  0  0  0  0
    7.9247   -9.9595    0.0000 O   0  0  0  0  0  0  0  0  0  0  0  0
    6.4956   -9.1345    0.0000 O   0  0  0  0  0  0  0  0  0  0  0  0
    6.4956   -7.4845    0.0000 C   0  0  0  0  0  0  0  0  0  0  0  0
    5.7812   -7.8970    0.0000 O   0  0  0  0  0  0  0  0  0  0  0  0
   12.2116   -5.8344    0.0000 O   0  0  0  0  0  0  0  0  0  0  0  0
   11.4972   -6.2469    0.0000 C   0  0  1  0  0  0  0  0  0  0  0  0
   11.4972   -7.0720    0.0000 C   0  0  1  0  0  0  0  0  0  0  0  0
   10.7824   -5.8344    0.0000 O   0  0  0  0  0  0  0  0  0  0  0  0
   10.7824   -7.4845    0.0000 C   0  0  2  0  0  0  0  0  0  0  0  0
   10.0681   -6.2469    0.0000 C   0  0  1  0  0  0  0  0  0  0  0  0
   10.0681   -7.0720    0.0000 C   0  0  1  0  0  0  0  0  0  0  0  0
   12.2116   -7.4845    0.0000 N   0  0  0  0  0  0  0  0  0  0  0  0
    9.3536   -5.8344    0.0000 C   0  0  0  0  0  0  0  0  0  0  0  0
    8.6391   -6.2469    0.0000 O   0  0  0  0  0  0  0  0  0  0  0  0
   12.9260   -7.0720    0.0000 C   0  0  0  0  0  0  0  0  0  0  0  0
   12.9260   -6.2469    0.0000 O   0  0  0  0  0  0  0  0  0  0  0  0
   13.6405   -7.4845    0.0000 C   0  0  0  0  0  0  0  0  0  0  0  0
   10.7824   -8.3095    0.0000 O   0  0  0  0  0  0  0  0  0  0  0  0
    9.3536  -10.5636    0.0000 O   0  0  0  0  0  0  0  0  0  0  0  0
    9.7659  -11.2781    0.0000 C   0  0  2  0  0  0  0  0  0  0  0  0
    9.7662   -9.8490    0.0000 C   0  0  2  0  0  0  0  0  0  0  0  0
   10.5911   -9.8490    0.0000 C   0  0  2  0  0  0  0  0  0  0  0  0
   11.0036  -10.5636    0.0000 C   0  0  1  0  0  0  0  0  0  0  0  0
   10.5911  -11.2782    0.0000 C   0  0  2  0  0  0  0  0  0  0  0  0
   11.0039   -9.1347    0.0000 O   0  0  0  0  0  0  0  0  0  0  0  0
   11.8285  -10.5636    0.0000 O   0  0  0  0  0  0  0  0  0  0  0  0
   11.0036  -11.9925    0.0000 O   0  0  0  0  0  0  0  0  0  0  0  0
    9.3534  -11.9925    0.0000 C   0  0  0  0  0  0  0  0  0  0  0  0
    5.7812   -9.5470    0.0000 C   0  0  2  0  0  0  0  0  0  0  0  0
    5.7812  -10.3721    0.0000 C   0  0  1  0  0  0  0  0  0  0  0  0
    5.0666   -9.1345    0.0000 O   0  0  0  0  0  0  0  0  0  0  0  0
    5.0666  -10.7844    0.0000 C   0  0  2  0  0  0  0  0  0  0  0  0
    4.3522   -9.5470    0.0000 C   0  0  1  0  0  0  0  0  0  0  0  0
    4.3522  -10.3721    0.0000 C   0  0  2  0  0  0  0  0  0  0  0  0
    6.4956  -10.7844    0.0000 N   0  0  0  0  0  0  0  0  0  0  0  0
    5.0666  -11.6095    0.0000 O   0  0  0  0  0  0  0  0  0  0  0  0
    3.6377  -10.7844    0.0000 O   0  0  0  0  0  0  0  0  0  0  0  0
    3.6377   -9.1345    0.0000 C   0  0  0  0  0  0  0  0  0  0  0  0
    2.9230   -9.5470    0.0000 O   0  0  0  0  0  0  0  0  0  0  0  0
    6.4956  -11.6095    0.0000 C   0  0  0  0  0  0  0  0  0  0  0  0
    7.2102  -12.0219    0.0000 O   0  0  0  0  0  0  0  0  0  0  0  0
    5.7812  -12.0220    0.0000 C   0  0  0  0  0  0  0  0  0  0  0  0
  1  2  1  0  0  0  0
  1  3  1  0  0  0  0
  2  4  1  0  0  0  0
  3  5  1  0  0  0  0
  4  6  1  0  0  0  0
  5  6  1  0  0  0  0
  1  7  1  1  0  0  0
  2  8  1  6  0  0  0
  4  9  1  1  0  0  0
  6 10  1  1  0  0  0
  5 11  1  1  0  0  0
 12 11  1  0  0  0  0
 14 15  1  0  0  0  0
 14 16  1  0  0  0  0
 15 17  1  0  0  0  0
 16 18  1  0  0  0  0
 17 19  1  0  0  0  0
 18 19  1  0  0  0  0
 14 13  1  1  0  0  0
 15 20  1  6  0  0  0
 19  7  1  6  0  0  0
 18 21  1  1  0  0  0
 22 21  1  0  0  0  0
 24 23  2  0  0  0  0
 25 23  1  0  0  0  0
 20 23  1  0  0  0  0
 17 26  1  1  0  0  0
 28 27  1  0  0  0  0
 29 27  1  0  0  0  0
 29 30  1  0  0  0  0
 30 33  1  1  0  0  0
 30 31  1  0  0  0  0
 31 34  1  6  0  0  0
 31 32  1  0  0  0  0
 32 28  1  0  0  0  0
 32 35  1  6  0  0  0
 28 36  1  6  0  0  0
 29  8  1  1  0  0  0
 37 38  1  0  0  0  0
 37 39  1  0  0  0  0
 38 40  1  0  0  0  0
 39 41  1  0  0  0  0
 40 42  1  0  0  0  0
 41 42  1  0  0  0  0
 37 10  1  6  0  0  0
 38 43  1  6  0  0  0
 40 44  1  1  0  0  0
 42 45  1  1  0  0  0
 41 46  1  1  0  0  0
 47 46  1  0  0  0  0
 49 48  2  0  0  0  0
 50 48  1  0  0  0  0
 43 48  1  0  0  0  0
M  END
> <ID>
CHEBI:68435

> <NAME>
alpha-D-GalpNAc-(1->4)-[alpha-D-Fucp-(1->2)]-beta-D-Galp-(1->4)-beta-D-GlcpNAc

> <DEFINITION>
An amino tetrasaccharide in which an α-L-fucosyl residue is linked (1→2) to the middle galactosyl residue of an N-acetyl-α-D-galactosaminyl-(1→4)-β-D-galactosyl-(1→4)-N-acetyl-β-D-glucosamine trisaccharide.

> <STAR>
3

> <SYNONYM>
N-acetyl-alpha-D-galactosaminyl-(1->4)-[alpha-L-fucosyl-(1->2)]-beta-D-galactosyl-(1->4)-N-acetyl-beta-D-glucosamine; GalNAcalpha1-4(Fucalpha1-2)Galbeta1-4GlcNAcbeta; GalNAca1-4(Fuca1-2)Galb1-4GlcNAcb; alpha-D-GalNAc-(1->4)-[alpha-D-Fuc-(1->2)]-beta-D-Gal-(1->4)-beta-D-GlcNAc; 2-acetamido-2-deoxy-alpha-D-galactopyranosyl-(1->4)-[6-deoxy-alpha-L-galactopyranosyl-(1->2)]-beta-D-galactopyranosyl-(1->4)-2-acetamido-2-deoxy-beta-D-glucopyranose

> <IUPAC_NAME>
2-acetamido-2-deoxy-alpha-D-galactopyranosyl-(1->4)-[alpha-L-fucopyranosyl-(1->2)]-beta-D-galactopyranosyl-(1->4)-2-acetamido-2-deoxy-beta-D-glucopyranose

> <FORMULA>
C28H48N2O20

> <MASS>
732.68210

> <MONOISOTOPIC_MASS>
732.28004

> <CHARGE>
0

> <SMILES>
C[C@@H]1O[C@@H](O[C@@H]2[C@@H](O)[C@@H](O[C@H]3O[C@H](CO)[C@H](O)[C@H](O)[C@H]3NC(C)=O)[C@@H](CO)O[C@H]2O[C@H]2[C@H](O)[C@@H](NC(C)=O)[C@H](O)O[C@@H]2CO)[C@@H](O)[C@H](O)[C@@H]1O

> <INCHI>
InChI=1S/C28H48N2O20/c1-7-15(36)19(40)20(41)27(44-7)50-24-21(42)23(48-26-14(30-9(3)35)17(38)16(37)10(4-31)46-26)12(6-33)47-28(24)49-22-11(5-32)45-25(43)13(18(22)39)29-8(2)34/h7,10-28,31-33,36-43H,4-6H2,1-3H3,(H,29,34)(H,30,35)/t7-,10+,11+,12+,13+,14+,15+,16-,17+,18+,19+,20-,21-,22+,23-,24+,25+,26+,27-,28-/m0/s1

> <INCHIKEY>
CAORXBKGDBVZIL-AYCJKDCZSA-N

> <PUBMED_CITATION>
19443021; 25568069; 31537530

$$$$

Marvin  09121216112D          

 39 41  0  0  1  0            999 V2000
   12.7755  -23.6106    0.0000 C   0  0  1  0  0  0  0  0  0  0  0  0
   12.7755  -24.4356    0.0000 C   0  0  1  0  0  0  0  0  0  0  0  0
   12.0609  -23.1981    0.0000 O   0  0  0  0  0  0  0  0  0  0  0  0
   12.0609  -24.8481    0.0000 C   0  0  2  0  0  0  0  0  0  0  0  0
   11.3465  -23.6106    0.0000 C   0  0  1  0  0  0  0  0  0  0  0  0
   11.3465  -24.4356    0.0000 C   0  0  1  0  0  0  0  0  0  0  0  0
   13.4899  -23.1981    0.0000 O   0  0  0  0  0  0  0  0  0  0  0  0
   13.4899  -24.8481    0.0000 N   0  0  0  0  0  0  0  0  0  0  0  0
   12.0609  -25.6731    0.0000 O   0  0  0  0  0  0  0  0  0  0  0  0
   10.6320  -24.8481    0.0000 O   0  0  0  0  0  0  0  0  0  0  0  0
   10.6320  -23.1981    0.0000 C   0  0  0  0  0  0  0  0  0  0  0  0
   14.2102  -24.4358    0.0000 C   0  0  0  0  0  0  0  0  0  0  0  0
   14.9231  -24.8509    0.0000 C   0  0  0  0  0  0  0  0  0  0  0  0
   14.2131  -23.6107    0.0000 O   0  0  0  0  0  0  0  0  0  0  0  0
   10.6302  -22.3780    0.0000 O   0  0  0  0  0  0  0  0  0  0  0  0
    9.9175  -24.4356    0.0000 C   0  0  1  0  0  0  0  0  0  0  0  0
    9.2030  -24.8481    0.0000 C   0  0  1  0  0  0  0  0  0  0  0  0
    9.9175  -23.6105    0.0000 O   0  0  0  0  0  0  0  0  0  0  0  0
    8.4885  -24.4355    0.0000 C   0  0  2  0  0  0  0  0  0  0  0  0
    9.2030  -23.1980    0.0000 C   0  0  1  0  0  0  0  0  0  0  0  0
    8.4886  -23.6105    0.0000 C   0  0  2  0  0  0  0  0  0  0  0  0
    9.2030  -25.6731    0.0000 N   0  0  0  0  0  0  0  0  0  0  0  0
    7.7740  -24.8480    0.0000 O   0  0  0  0  0  0  0  0  0  0  0  0
    7.7741  -23.1979    0.0000 O   0  0  0  0  0  0  0  0  0  0  0  0
    9.2030  -22.3731    0.0000 C   0  0  0  0  0  0  0  0  0  0  0  0
    8.4886  -21.9605    0.0000 O   0  0  0  0  0  0  0  0  0  0  0  0
    8.4857  -26.0906    0.0000 C   0  0  0  0  0  0  0  0  0  0  0  0
    8.4886  -26.9156    0.0000 C   0  0  0  0  0  0  0  0  0  0  0  0
    7.7698  -25.6806    0.0000 O   0  0  0  0  0  0  0  0  0  0  0  0
   12.7753  -26.0856    0.0000 C   0  0  1  0  0  0  0  0  0  0  0  0
   12.7753  -26.9106    0.0000 C   0  0  2  0  0  0  0  0  0  0  0  0
   13.4899  -25.6731    0.0000 O   0  0  0  0  0  0  0  0  0  0  0  0
   13.4899  -27.3231    0.0000 C   0  0  1  0  0  0  0  0  0  0  0  0
   14.2043  -26.0856    0.0000 C   0  0  2  0  0  0  0  0  0  0  0  0
   14.2043  -26.9106    0.0000 C   0  0  1  0  0  0  0  0  0  0  0  0
   12.0609  -27.3231    0.0000 O   0  0  0  0  0  0  0  0  0  0  0  0
   13.4899  -28.1481    0.0000 O   0  0  0  0  0  0  0  0  0  0  0  0
   14.9188  -27.3231    0.0000 O   0  0  0  0  0  0  0  0  0  0  0  0
   14.9188  -25.6731    0.0000 C   0  0  0  0  0  0  0  0  0  0  0  0
  1  2  1  0  0  0  0
  1  3  1  0  0  0  0
  2  4  1  0  0  0  0
  3  5  1  0  0  0  0
  4  6  1  0  0  0  0
  5  6  1  0  0  0  0
  1  7  1  1  0  0  0
  2  8  1  6  0  0  0
  4  9  1  1  0  0  0
  6 10  1  6  0  0  0
  5 11  1  1  0  0  0
  8 12  1  0  0  0  0
 12 13  1  0  0  0  0
 12 14  2  0  0  0  0
 11 15  1  0  0  0  0
 16 17  1  0  0  0  0
 16 18  1  0  0  0  0
 17 19  1  0  0  0  0
 18 20  1  0  0  0  0
 19 21  1  0  0  0  0
 20 21  1  0  0  0  0
 16 10  1  1  0  0  0
 17 22  1  6  0  0  0
 19 23  1  1  0  0  0
 21 24  1  1  0  0  0
 20 25  1  1  0  0  0
 26 25  1  0  0  0  0
 22 27  1  0  0  0  0
 27 28  1  0  0  0  0
 27 29  2  0  0  0  0
 30 31  1  0  0  0  0
 30 32  1  0  0  0  0
 31 33  1  0  0  0  0
 32 34  1  0  0  0  0
 33 35  1  0  0  0  0
 34 35  1  0  0  0  0
 30  9  1  6  0  0  0
 31 36  1  6  0  0  0
 33 37  1  1  0  0  0
 35 38  1  1  0  0  0
 34 39  1  1  0  0  0
M  END
> <ID>
CHEBI:68446

> <NAME>
beta-D-GalpNAc-(1->4)-[alpha-L-Fucp-(1->3)]-beta-D-GlcpNAc

> <DEFINITION>
β-D-GalpNAc-(1→4)-[α-L-Fucp-(1→3)]-D-GlcpNAc with β configuration at the anomeric centre.

> <STAR>
3

> <SYNONYM>
GalNAcbeta1-4(Fucalpha1-3)GlcNAcbeta; GalNAcb1-4(Fuca1-3)GlcNAcb; beta-D-GalNAc-(1->4)-[alpha-L-Fuc-(1->3)]-beta-D-GlcNAc; 2-acetamido-2-deoxy-beta-D-galactopyranosyl-(1->4)-[alpha-L-fucopyranosyl-(1->3)]-2-acetamido-2-deoxy-beta-D-glucopyranose; 2-acetamido-2-deoxy-beta-D-galactopyranosyl-(1->4)-[6-deoxy-alpha-L-galactopyranosyl-(1->3)]-2-acetamido-2-deoxy-beta-D-glucopyranose; 2-(acetylamino)-2-deoxy-beta-D-galactopyranosyl-(1->4)-[6-deoxy-alpha-L-galactopyranosyl-(1->3)]-2-(acetylamino)-2-deoxy-beta-D-glucopyranose

> <IUPAC_NAME>
2-acetamido-2-deoxy-beta-D-galactopyranosyl-(1->4)-[alpha-L-fucopyranosyl-(1->3)]-2-acetamido-2-deoxy-beta-D-glucopyranose

> <FORMULA>
C22H38N2O15

> <MASS>
570.54150

> <MONOISOTOPIC_MASS>
570.22722

> <CHARGE>
0

> <SMILES>
C[C@@H]1O[C@@H](O[C@@H]2[C@@H](NC(C)=O)[C@H](O)O[C@H](CO)[C@H]2O[C@@H]2O[C@H](CO)[C@H](O)[C@H](O)[C@H]2NC(C)=O)[C@@H](O)[C@H](O)[C@@H]1O

> <INCHI>
InChI=1S/C22H38N2O15/c1-6-13(29)16(32)17(33)22(35-6)39-19-12(24-8(3)28)20(34)36-10(5-26)18(19)38-21-11(23-7(2)27)15(31)14(30)9(4-25)37-21/h6,9-22,25-26,29-34H,4-5H2,1-3H3,(H,23,27)(H,24,28)/t6-,9+,10+,11+,12+,13+,14-,15+,16+,17-,18+,19+,20+,21-,22-/m0/s1

> <INCHIKEY>
UZZNPRAXUPVEEY-GPLCWDIKSA-N

> <PUBMED_CITATION>
19443021; 25568069; 31537530

$$$$

Marvin  09181211412D          

 44 47  0  0  1  0            999 V2000
    9.5894  -18.1018    0.0000 O   0  0  0  0  0  0  0  0  0  0  0  0
    8.8749  -18.5142    0.0000 C   0  0  2  0  0  0  0  0  0  0  0  0
    8.8749  -19.3392    0.0000 C   0  0  1  0  0  0  0  0  0  0  0  0
    8.1604  -18.1018    0.0000 O   0  0  0  0  0  0  0  0  0  0  0  0
    8.1604  -19.7517    0.0000 C   0  0  0  0  0  0  0  0  0  0  0  0
    7.4459  -18.5142    0.0000 C   0  0  1  0  0  0  0  0  0  0  0  0
    7.4459  -19.3392    0.0000 C   0  0  2  0  0  0  0  0  0  0  0  0
    9.5894  -19.7517    0.0000 O   0  0  0  0  0  0  0  0  0  0  0  0
    6.7315  -19.7517    0.0000 O   0  0  0  0  0  0  0  0  0  0  0  0
    6.7315  -18.1017    0.0000 C   0  0  0  0  0  0  0  0  0  0  0  0
   10.3039  -16.0393    0.0000 C   0  0  2  0  0  0  0  0  0  0  0  0
   10.3039  -16.8643    0.0000 C   0  0  2  0  0  0  0  0  0  0  0  0
    9.5894  -15.6268    0.0000 O   0  0  0  0  0  0  0  0  0  0  0  0
    9.5894  -17.2768    0.0000 C   0  0  2  0  0  0  0  0  0  0  0  0
    8.8749  -16.0393    0.0000 C   0  0  1  0  0  0  0  0  0  0  0  0
    8.8749  -16.8643    0.0000 C   0  0  1  0  0  0  0  0  0  0  0  0
   11.0183  -15.6267    0.0000 O   0  0  0  0  0  0  0  0  0  0  0  0
   11.0183  -17.2768    0.0000 O   0  0  0  0  0  0  0  0  0  0  0  0
    8.1604  -17.2768    0.0000 O   0  0  0  0  0  0  0  0  0  0  0  0
    8.1604  -15.6268    0.0000 C   0  0  0  0  0  0  0  0  0  0  0  0
    7.4460  -16.0393    0.0000 O   0  0  0  0  0  0  0  0  0  0  0  0
   11.0183  -18.1018    0.0000 C   0  0  0  0  0  0  0  0  0  0  0  0
   11.7329  -13.5642    0.0000 C   0  0  2  0  0  0  0  0  0  0  0  0
   11.7329  -14.3892    0.0000 C   0  0  1  0  0  0  0  0  0  0  0  0
   11.0183  -13.1517    0.0000 O   0  0  0  0  0  0  0  0  0  0  0  0
   11.0183  -14.8017    0.0000 C   0  0  2  0  0  0  0  0  0  0  0  0
   10.3039  -13.5642    0.0000 C   0  0  1  0  0  0  0  0  0  0  0  0
   10.3039  -14.3892    0.0000 C   0  0  1  0  0  0  0  0  0  0  0  0
   12.4473  -13.1517    0.0000 O   0  0  0  0  0  0  0  0  0  0  0  0
   12.4473  -14.8018    0.0000 O   0  0  0  0  0  0  0  0  0  0  0  0
    9.5894  -14.8017    0.0000 O   0  0  0  0  0  0  0  0  0  0  0  0
    9.5894  -13.1518    0.0000 C   0  0  0  0  0  0  0  0  0  0  0  0
    8.8750  -13.5643    0.0000 O   0  0  0  0  0  0  0  0  0  0  0  0
   14.5908  -11.9142    0.0000 C   0  0  1  0  0  0  0  0  0  0  0  0
   14.5908  -12.7392    0.0000 C   0  0  1  0  0  0  0  0  0  0  0  0
   13.8763  -11.5017    0.0000 O   0  0  0  0  0  0  0  0  0  0  0  0
   13.8763  -13.1517    0.0000 C   0  0  2  0  0  0  0  0  0  0  0  0
   13.1618  -11.9142    0.0000 C   0  0  1  0  0  0  0  0  0  0  0  0
   13.1618  -12.7392    0.0000 C   0  0  1  0  0  0  0  0  0  0  0  0
   15.3052  -11.5017    0.0000 O   0  0  0  0  0  0  0  0  0  0  0  0
   15.3052  -13.1517    0.0000 O   0  0  0  0  0  0  0  0  0  0  0  0
   13.8763  -13.9767    0.0000 O   0  0  0  0  0  0  0  0  0  0  0  0
   12.4473  -11.5017    0.0000 C   0  0  0  0  0  0  0  0  0  0  0  0
   11.7329  -11.9142    0.0000 O   0  0  0  0  0  0  0  0  0  0  0  0
  2  3  1  0  0  0  0
  2  4  1  0  0  0  0
  3  5  1  0  0  0  0
  4  6  1  0  0  0  0
  5  7  1  0  0  0  0
  6  7  1  0  0  0  0
  2  1  1  6  0  0  0
  3  8  1  6  0  0  0
  7  9  1  1  0  0  0
  6 10  1  1  0  0  0
 11 12  1  0  0  0  0
 11 13  1  0  0  0  0
 12 14  1  0  0  0  0
 13 15  1  0  0  0  0
 14 16  1  0  0  0  0
 15 16  1  0  0  0  0
 11 17  1  6  0  0  0
 12 18  1  1  0  0  0
 14  1  1  1  0  0  0
 16 19  1  6  0  0  0
 15 20  1  1  0  0  0
 21 20  1  0  0  0  0
 18 22  1  0  0  0  0
 23 24  1  0  0  0  0
 23 25  1  0  0  0  0
 24 26  1  0  0  0  0
 25 27  1  0  0  0  0
 26 28  1  0  0  0  0
 27 28  1  0  0  0  0
 23 29  1  6  0  0  0
 24 30  1  6  0  0  0
 26 17  1  1  0  0  0
 28 31  1  6  0  0  0
 27 32  1  1  0  0  0
 33 32  1  0  0  0  0
 34 35  1  0  0  0  0
 34 36  1  0  0  0  0
 35 37  1  0  0  0  0
 36 38  1  0  0  0  0
 37 39  1  0  0  0  0
 38 39  1  0  0  0  0
 34 40  1  1  0  0  0
 35 41  1  6  0  0  0
 37 42  1  1  0  0  0
 39 29  1  6  0  0  0
 38 43  1  1  0  0  0
 44 43  1  0  0  0  0
M  END
> <ID>
CHEBI:68460

> <NAME>
alpha-D-Abep-(1->3)-alpha-D-Manp2Me-(1->3)-alpha-D-Glcp-(1->4)-beta-D-Glcp

> <DEFINITION>
A tetrasaccharide derivative comprised of abequose, mannose and two glucose residues in linear sequence, connected by α-linkages (1→3), (1→3) and (1→4), respectively, and with β-configuration at the anomeric centre.

> <STAR>
3

> <SYNONYM>
alpha-D-abequosyl-(1->3)-2-O-methyl-alpha-D-mannosyl-(1->3)-alpha-D-glucosyl-(1->4)-beta-D-glucose; alpha-D-Abe-(1->3)-alpha-D-Man2Me-(1->3)-alpha-D-Glc-(1->4)-beta-D-Glc; alpha-D-Abe-(1-3)-2-O-methyl-alpha-D-Manp-(1-3)-alpha-D-Glcp-(1-4)-beta-D-Glcp

> <IUPAC_NAME>
3,6-dideoxy-alpha-D-xylo-hexopyranosyl-(1->3)-2-O-methyl-alpha-D-mannopyranosyl-(1->3)-alpha-D-glucopyranosyl-(1->4)-beta-D-glucopyranose

> <FORMULA>
C25H44O19

> <MASS>
648.60550

> <MONOISOTOPIC_MASS>
648.24768

> <CHARGE>
0

> <SMILES>
CO[C@@H]1[C@H](O[C@H](CO)[C@@H](O)[C@@H]1O[C@H]1O[C@H](C)[C@H](O)C[C@H]1O)O[C@H]1[C@H](O)[C@@H](CO)O[C@H](O[C@@H]2[C@@H](CO)O[C@@H](O)[C@H](O)[C@H]2O)[C@@H]1O

> <INCHI>
InChI=1S/C25H44O19/c1-7-8(29)3-9(30)23(38-7)44-20-14(32)11(5-27)41-25(21(20)37-2)43-19-13(31)10(4-26)40-24(17(19)35)42-18-12(6-28)39-22(36)16(34)15(18)33/h7-36H,3-6H2,1-2H3/t7-,8-,9-,10-,11-,12-,13-,14-,15-,16-,17-,18-,19+,20+,21+,22-,23-,24-,25-/m1/s1

> <INCHIKEY>
YKPVKBHUJVKKQM-URVTXPQISA-N

> <PUBMED_CITATION>
22128847

$$$$

Marvin  09181212412D          

 32 34  0  0  1  0            999 V2000
   15.2061  -37.2344    0.0000 C   0  0  2  0  0  0  0  0  0  0  0  0
   15.2061  -38.0594    0.0000 C   0  0  2  0  0  0  0  0  0  0  0  0
   14.4915  -36.8219    0.0000 O   0  0  0  0  0  0  0  0  0  0  0  0
   14.4915  -38.4719    0.0000 C   0  0  2  0  0  0  0  0  0  0  0  0
   13.7771  -37.2344    0.0000 C   0  0  1  0  0  0  0  0  0  0  0  0
   13.7771  -38.0594    0.0000 C   0  0  1  0  0  0  0  0  0  0  0  0
   15.9205  -36.8219    0.0000 O   0  0  0  0  0  0  0  0  0  0  0  0
   15.9205  -38.4719    0.0000 O   0  0  0  0  0  0  0  0  0  0  0  0
   14.4915  -39.2969    0.0000 O   0  0  0  0  0  0  0  0  0  0  0  0
   13.0626  -38.4719    0.0000 O   0  0  0  0  0  0  0  0  0  0  0  0
   13.0626  -36.8219    0.0000 C   0  0  0  0  0  0  0  0  0  0  0  0
   12.3481  -37.2344    0.0000 O   0  0  0  0  0  0  0  0  0  0  0  0
   16.6350  -38.8844    0.0000 C   0  0  2  0  0  0  0  0  0  0  0  0
   17.3495  -38.4719    0.0000 C   0  0  2  0  0  0  0  0  0  0  0  0
   16.6350  -39.7094    0.0000 O   0  0  0  0  0  0  0  0  0  0  0  0
   18.0640  -38.8844    0.0000 C   0  0  2  0  0  0  0  0  0  0  0  0
   17.3495  -40.1219    0.0000 C   0  0  1  0  0  0  0  0  0  0  0  0
   18.0640  -39.7094    0.0000 C   0  0  2  0  0  0  0  0  0  0  0  0
   17.3495  -37.6468    0.0000 O   0  0  0  0  0  0  0  0  0  0  0  0
   18.7784  -38.4719    0.0000 O   0  0  0  0  0  0  0  0  0  0  0  0
   18.7784  -40.1219    0.0000 O   0  0  0  0  0  0  0  0  0  0  0  0
   17.3495  -40.9469    0.0000 C   0  0  0  0  0  0  0  0  0  0  0  0
   18.0640  -41.3594    0.0000 O   0  0  0  0  0  0  0  0  0  0  0  0
   13.7771  -39.7093    0.0000 C   0  0  2  0  0  0  0  0  0  0  0  0
   13.7771  -40.5343    0.0000 C   0  0  1  0  0  0  0  0  0  0  0  0
   13.0625  -39.2969    0.0000 O   0  0  0  0  0  0  0  0  0  0  0  0
   13.0625  -40.9468    0.0000 C   0  0  0  0  0  0  0  0  0  0  0  0
   12.3481  -39.7093    0.0000 C   0  0  1  0  0  0  0  0  0  0  0  0
   12.3481  -40.5343    0.0000 C   0  0  2  0  0  0  0  0  0  0  0  0
   14.4915  -40.9468    0.0000 O   0  0  0  0  0  0  0  0  0  0  0  0
   11.6337  -40.9468    0.0000 O   0  0  0  0  0  0  0  0  0  0  0  0
   11.6337  -39.2968    0.0000 C   0  0  0  0  0  0  0  0  0  0  0  0
  1  2  1  0  0  0  0
  1  3  1  0  0  0  0
  2  4  1  0  0  0  0
  3  5  1  0  0  0  0
  4  6  1  0  0  0  0
  5  6  1  0  0  0  0
  1  7  1  6  0  0  0
  2  8  1  1  0  0  0
  4  9  1  1  0  0  0
  6 10  1  6  0  0  0
  5 11  1  1  0  0  0
 12 11  1  0  0  0  0
 13 14  1  0  0  0  0
 13 15  1  0  0  0  0
 14 16  1  0  0  0  0
 15 17  1  0  0  0  0
 16 18  1  0  0  0  0
 17 18  1  0  0  0  0
 13  8  1  6  0  0  0
 14 19  1  1  0  0  0
 16 20  1  1  0  0  0
 18 21  1  1  0  0  0
 17 22  1  1  0  0  0
 23 22  1  0  0  0  0
 24 25  1  0  0  0  0
 24 26  1  0  0  0  0
 25 27  1  0  0  0  0
 26 28  1  0  0  0  0
 27 29  1  0  0  0  0
 28 29  1  0  0  0  0
 24  9  1  6  0  0  0
 25 30  1  6  0  0  0
 29 31  1  1  0  0  0
 28 32  1  1  0  0  0
M  END
> <ID>
CHEBI:68463

> <NAME>
alpha-D-Talp-(1->2)-[alpha-D-Abep-(1->3)]-alpha-D-Manp

> <DEFINITION>
A trisaccharide comprised of α-D-abequose and α-D-talose residues linked (1→3) and (1→2), respectively, to α-D-mannose.

> <STAR>
3

> <SYNONYM>
alpha-D-Talp-(1-2)-[alpha-D-Abe-(1-3)]-alpha-D-Manp; alpha-D-Abep-(1->3)-[alpha-D-Talp-(1->2)]-alpha-D-Manp; alpha-D-Abe-(1->3)-[alpha-D-Tal-(1->2)]-alpha-D-Man; 3,6-dideoxy-alpha-D-xylo-hexosyl-(1->3)-[alpha-D-talosyl-(1->3)]-alpha-D-mannose

> <IUPAC_NAME>
3,6-dideoxy-alpha-D-xylo-hexopyranosyl-(1->3)-[alpha-D-talopyranosyl-(1->2)]-alpha-D-mannopyranose

> <FORMULA>
C18H32O14

> <MASS>
472.43830

> <MONOISOTOPIC_MASS>
472.17921

> <CHARGE>
0

> <SMILES>
C[C@H]1O[C@H](O[C@H]2[C@H](O)[C@@H](CO)O[C@H](O)[C@H]2O[C@H]2O[C@H](CO)[C@H](O)[C@H](O)[C@@H]2O)[C@H](O)C[C@H]1O

> <INCHI>
InChI=1S/C18H32O14/c1-5-6(21)2-7(22)17(28-5)31-14-11(24)9(4-20)29-16(27)15(14)32-18-13(26)12(25)10(23)8(3-19)30-18/h5-27H,2-4H2,1H3/t5-,6-,7-,8-,9-,10+,11-,12+,13+,14+,15+,16+,17-,18-/m1/s1

> <INCHIKEY>
LSAKLQNQHXTPFN-XFBNTEHQSA-N

> <PUBMED_CITATION>
22128847

$$$$

Marvin  09191215262D          

 44 47  0  0  1  0            999 V2000
   10.6003  -43.2397    0.0000 O   0  0  0  0  0  0  0  0  0  0  0  0
    9.8858  -43.6522    0.0000 C   0  0  1  0  0  0  0  0  0  0  0  0
    9.8858  -44.4773    0.0000 C   0  0  1  0  0  0  0  0  0  0  0  0
    9.1713  -43.2398    0.0000 O   0  0  0  0  0  0  0  0  0  0  0  0
    9.1714  -44.8897    0.0000 C   0  0  2  0  0  0  0  0  0  0  0  0
    8.4568  -43.6523    0.0000 C   0  0  1  0  0  0  0  0  0  0  0  0
    8.4569  -44.4773    0.0000 C   0  0  2  0  0  0  0  0  0  0  0  0
   10.6004  -44.8898    0.0000 O   0  0  0  0  0  0  0  0  0  0  0  0
    9.1714  -45.7147    0.0000 O   0  0  0  0  0  0  0  0  0  0  0  0
    7.7424  -44.8897    0.0000 O   0  0  0  0  0  0  0  0  0  0  0  0
    7.7425  -43.2398    0.0000 C   0  0  0  0  0  0  0  0  0  0  0  0
    7.0279  -43.6523    0.0000 O   0  0  0  0  0  0  0  0  0  0  0  0
    8.4568  -46.1273    0.0000 C   0  0  2  0  0  0  0  0  0  0  0  0
    8.4568  -46.9523    0.0000 C   0  0  1  0  0  0  0  0  0  0  0  0
    7.7424  -45.7148    0.0000 O   0  0  0  0  0  0  0  0  0  0  0  0
    7.7424  -47.3648    0.0000 C   0  0  2  0  0  0  0  0  0  0  0  0
    7.0279  -46.1273    0.0000 C   0  0  1  0  0  0  0  0  0  0  0  0
    7.0279  -46.9523    0.0000 C   0  0  2  0  0  0  0  0  0  0  0  0
    9.1714  -47.3648    0.0000 O   0  0  0  0  0  0  0  0  0  0  0  0
    7.7424  -48.1898    0.0000 O   0  0  0  0  0  0  0  0  0  0  0  0
    6.3134  -47.3649    0.0000 O   0  0  0  0  0  0  0  0  0  0  0  0
    6.3135  -45.7148    0.0000 C   0  0  0  0  0  0  0  0  0  0  0  0
    5.5990  -46.1273    0.0000 O   0  0  0  0  0  0  0  0  0  0  0  0
   10.6004  -46.3186    0.0000 O   0  0  0  0  0  0  0  0  0  0  0  0
   11.0130  -47.0331    0.0000 C   0  0  2  0  0  0  0  0  0  0  0  0
   11.0129  -45.6041    0.0000 C   0  0  2  0  0  0  0  0  0  0  0  0
   11.8379  -45.6041    0.0000 C   0  0  2  0  0  0  0  0  0  0  0  0
   12.2504  -46.3185    0.0000 C   0  0  1  0  0  0  0  0  0  0  0  0
   11.8379  -47.0331    0.0000 C   0  0  2  0  0  0  0  0  0  0  0  0
   12.2167  -45.0255    0.0000 O   0  0  0  0  0  0  0  0  0  0  0  0
   13.0754  -46.3184    0.0000 O   0  0  0  0  0  0  0  0  0  0  0  0
   12.2505  -47.7474    0.0000 O   0  0  0  0  0  0  0  0  0  0  0  0
   10.6005  -47.7476    0.0000 C   0  0  0  0  0  0  0  0  0  0  0  0
   11.9114  -42.3501    0.0000 O   0  0  0  0  0  0  0  0  0  0  0  0
   10.6002  -40.7647    0.0000 C   0  0  1  0  0  0  0  0  0  0  0  0
   11.3146  -41.1771    0.0000 C   0  0  1  0  0  0  0  0  0  0  0  0
    9.8856  -41.1772    0.0000 O   0  0  0  0  0  0  0  0  0  0  0  0
   11.3147  -42.0021    0.0000 C   0  0  2  0  0  0  0  0  0  0  0  0
    9.8857  -42.0023    0.0000 C   0  0  1  0  0  0  0  0  0  0  0  0
   10.6003  -42.4147    0.0000 C   0  0  1  0  0  0  0  0  0  0  0  0
   10.6001  -39.9397    0.0000 O   0  0  0  0  0  0  0  0  0  0  0  0
   12.0291  -40.7645    0.0000 O   0  0  0  0  0  0  0  0  0  0  0  0
    9.1712  -42.4147    0.0000 C   0  0  0  0  0  0  0  0  0  0  0  0
    8.4568  -42.0023    0.0000 O   0  0  0  0  0  0  0  0  0  0  0  0
  2  3  1  0  0  0  0
  2  4  1  0  0  0  0
  3  5  1  0  0  0  0
  4  6  1  0  0  0  0
  5  7  1  0  0  0  0
  6  7  1  0  0  0  0
  2  1  1  1  0  0  0
  3  8  1  6  0  0  0
  5  9  1  1  0  0  0
  7 10  1  1  0  0  0
  6 11  1  1  0  0  0
 12 11  1  0  0  0  0
 13 14  1  0  0  0  0
 13 15  1  0  0  0  0
 14 16  1  0  0  0  0
 15 17  1  0  0  0  0
 16 18  1  0  0  0  0
 17 18  1  0  0  0  0
 13  9  1  6  0  0  0
 14 19  1  6  0  0  0
 16 20  1  1  0  0  0
 18 21  1  1  0  0  0
 17 22  1  1  0  0  0
 23 22  1  0  0  0  0
 25 24  1  0  0  0  0
 26 24  1  0  0  0  0
 26  8  1  1  0  0  0
 26 27  1  0  0  0  0
 27 30  1  1  0  0  0
 27 28  1  0  0  0  0
 28 31  1  6  0  0  0
 28 29  1  0  0  0  0
 29 25  1  0  0  0  0
 29 32  1  6  0  0  0
 25 33  1  6  0  0  0
 35 36  1  0  0  0  0
 35 37  1  0  0  0  0
 36 38  1  0  0  0  0
 37 39  1  0  0  0  0
 38 40  1  0  0  0  0
 39 40  1  0  0  0  0
 35 41  1  1  0  0  0
 36 42  1  6  0  0  0
 38 34  1  1  0  0  0
 40  1  1  6  0  0  0
 39 43  1  1  0  0  0
 43 44  1  0  0  0  0
M  END
> <ID>
CHEBI:68474

> <NAME>
alpha-D-Galp-(1->3)-[alpha-L-Fucp-(1->2)]-beta-D-Galp-(1->4)-beta-D-Glcp

> <DEFINITION>
A branched tetrasaccharide with a structure consisting of an α-galactosyl-(1→3)-β-galactosyl-(1→4)-glucose backbone, to the subterminal galactose of which is α(1→2)-linked a fucosyl residue.

> <STAR>
3

> <SYNONYM>
Galalpha1-3(Fucalpha1-2)Galbeta1-4Glcbeta; Gala1-3(Fuca1-2)Galb1-4Glcb; alpha-L-fucosyl-(1->2)-[alpha-D-galactosyl-(1->3)]-beta-D-galactosyl-(1->4)-beta-D-glucose

> <IUPAC_NAME>
alpha-L-fucopyranosyl-(1->2)-[alpha-D-galactopyranosyl-(1->3)]-beta-D-galactopyranosyl-(1->4)-beta-D-glucopyranose; 6-deoxy-alpha-L-galactopyranosyl-(1->2)-[alpha-D-galactopyranosyl-(1->3)]-beta-D-galactopyranosyl-(1->4)-beta-D-glucopyranose

> <FORMULA>
C24H42O20

> <MASS>
650.57830

> <MONOISOTOPIC_MASS>
650.22694

> <CHARGE>
0

> <SMILES>
C[C@@H]1O[C@@H](O[C@H]2[C@@H](O[C@H](CO)[C@H](O)[C@@H]2O[C@H]2O[C@H](CO)[C@H](O)[C@H](O)[C@H]2O)O[C@@H]2[C@@H](CO)O[C@@H](O)[C@H](O)[C@H]2O)[C@@H](O)[C@H](O)[C@@H]1O

> <INCHI>
InChI=1S/C24H42O20/c1-5-9(28)12(31)16(35)22(38-5)44-20-19(43-23-17(36)13(32)10(29)6(2-25)40-23)11(30)7(3-26)41-24(20)42-18-8(4-27)39-21(37)15(34)14(18)33/h5-37H,2-4H2,1H3/t5-,6+,7+,8+,9+,10-,11-,12+,13-,14+,15+,16-,17+,18+,19-,20+,21+,22-,23+,24-/m0/s1

> <INCHIKEY>
CASKAPBFMUHBRB-YDSSJLCNSA-N

> <PUBMED_CITATION>
19443021; 25568069; 31537530

$$$$

Marvin  09191216072D          

 48 51  0  0  1  0            999 V2000
    9.5790   -9.2391    0.0000 O   0  0  0  0  0  0  0  0  0  0  0  0
   10.2936   -7.1766    0.0000 C   0  0  1  0  0  0  0  0  0  0  0  0
   10.2936   -8.0016    0.0000 C   0  0  1  0  0  0  0  0  0  0  0  0
    9.5791   -6.7641    0.0000 O   0  0  0  0  0  0  0  0  0  0  0  0
    9.5791   -8.4141    0.0000 C   0  0  2  0  0  0  0  0  0  0  0  0
    8.8646   -7.1766    0.0000 C   0  0  1  0  0  0  0  0  0  0  0  0
    8.8646   -8.0016    0.0000 C   0  0  2  0  0  0  0  0  0  0  0  0
   11.0081   -6.7641    0.0000 O   0  0  0  0  0  0  0  0  0  0  0  0
   11.0081   -8.4141    0.0000 O   0  0  0  0  0  0  0  0  0  0  0  0
    8.1501   -8.4141    0.0000 O   0  0  0  0  0  0  0  0  0  0  0  0
    8.1501   -6.7641    0.0000 C   0  0  0  0  0  0  0  0  0  0  0  0
   13.1515   -5.5266    0.0000 C   0  0  1  0  0  0  0  0  0  0  0  0
   13.1515   -6.3516    0.0000 C   0  0  1  0  0  0  0  0  0  0  0  0
   12.4370   -5.1141    0.0000 O   0  0  0  0  0  0  0  0  0  0  0  0
   12.4370   -6.7641    0.0000 C   0  0  2  0  0  0  0  0  0  0  0  0
   11.7225   -5.5266    0.0000 C   0  0  1  0  0  0  0  0  0  0  0  0
   11.7225   -6.3516    0.0000 C   0  0  1  0  0  0  0  0  0  0  0  0
   13.8660   -5.1141    0.0000 O   0  0  0  0  0  0  0  0  0  0  0  0
   13.8660   -6.7641    0.0000 N   0  0  0  0  0  0  0  0  0  0  0  0
   12.4370   -7.5891    0.0000 O   0  0  0  0  0  0  0  0  0  0  0  0
   11.0081   -5.1141    0.0000 C   0  0  0  0  0  0  0  0  0  0  0  0
   10.2935   -5.5266    0.0000 O   0  0  0  0  0  0  0  0  0  0  0  0
   13.8660   -7.5891    0.0000 C   0  0  0  0  0  0  0  0  0  0  0  0
   14.5804   -8.0016    0.0000 C   0  0  0  0  0  0  0  0  0  0  0  0
   13.1515   -8.0016    0.0000 O   0  0  0  0  0  0  0  0  0  0  0  0
    8.1501   -5.9391    0.0000 O   0  0  0  0  0  0  0  0  0  0  0  0
    9.1665   -9.9536    0.0000 C   0  0  2  0  0  0  0  0  0  0  0  0
    9.5790  -10.6680    0.0000 C   0  0  1  0  0  0  0  0  0  0  0  0
    8.3415   -9.9536    0.0000 O   0  0  0  0  0  0  0  0  0  0  0  0
    9.1665  -11.3826    0.0000 C   0  0  2  0  0  0  0  0  0  0  0  0
    7.9290  -10.6680    0.0000 C   0  0  1  0  0  0  0  0  0  0  0  0
    8.3414  -11.3825    0.0000 C   0  0  2  0  0  0  0  0  0  0  0  0
   10.4040  -10.6681    0.0000 O   0  0  0  0  0  0  0  0  0  0  0  0
    9.5789  -12.0970    0.0000 O   0  0  0  0  0  0  0  0  0  0  0  0
    7.9289  -12.0970    0.0000 O   0  0  0  0  0  0  0  0  0  0  0  0
    7.1040  -10.6680    0.0000 C   0  0  0  0  0  0  0  0  0  0  0  0
    6.6914  -11.3824    0.0000 O   0  0  0  0  0  0  0  0  0  0  0  0
    7.4357   -8.0016    0.0000 C   0  0  2  0  0  0  0  0  0  0  0  0
    6.7211   -8.4140    0.0000 C   0  0  1  0  0  0  0  0  0  0  0  0
    7.4357   -7.1765    0.0000 O   0  0  0  0  0  0  0  0  0  0  0  0
    6.0067   -8.0015    0.0000 C   0  0  2  0  0  0  0  0  0  0  0  0
    6.7212   -6.7640    0.0000 C   0  0  1  0  0  0  0  0  0  0  0  0
    6.0067   -7.1765    0.0000 C   0  0  2  0  0  0  0  0  0  0  0  0
    6.7211   -9.2390    0.0000 O   0  0  0  0  0  0  0  0  0  0  0  0
    5.2922   -8.4140    0.0000 O   0  0  0  0  0  0  0  0  0  0  0  0
    5.2923   -6.7639    0.0000 O   0  0  0  0  0  0  0  0  0  0  0  0
    6.7212   -5.9390    0.0000 C   0  0  0  0  0  0  0  0  0  0  0  0
    6.0067   -5.5265    0.0000 O   0  0  0  0  0  0  0  0  0  0  0  0
  2  3  1  0  0  0  0
  2  4  1  0  0  0  0
  3  5  1  0  0  0  0
  4  6  1  0  0  0  0
  5  7  1  0  0  0  0
  6  7  1  0  0  0  0
  2  8  1  1  0  0  0
  3  9  1  6  0  0  0
  5  1  1  1  0  0  0
  7 10  1  1  0  0  0
  6 11  1  1  0  0  0
 12 13  1  0  0  0  0
 12 14  1  0  0  0  0
 13 15  1  0  0  0  0
 14 16  1  0  0  0  0
 15 17  1  0  0  0  0
 16 17  1  0  0  0  0
 12 18  1  1  0  0  0
 13 19  1  6  0  0  0
 15 20  1  1  0  0  0
 17  8  1  6  0  0  0
 16 21  1  1  0  0  0
 22 21  1  0  0  0  0
 19 23  1  0  0  0  0
 23 24  1  0  0  0  0
 23 25  2  0  0  0  0
 11 26  1  0  0  0  0
 27 28  1  0  0  0  0
 27 29  1  0  0  0  0
 28 30  1  0  0  0  0
 29 31  1  0  0  0  0
 30 32  1  0  0  0  0
 31 32  1  0  0  0  0
 27  1  1  6  0  0  0
 28 33  1  6  0  0  0
 30 34  1  1  0  0  0
 32 35  1  1  0  0  0
 31 36  1  1  0  0  0
 37 36  1  0  0  0  0
 38 39  1  0  0  0  0
 38 40  1  0  0  0  0
 39 41  1  0  0  0  0
 40 42  1  0  0  0  0
 41 43  1  0  0  0  0
 42 43  1  0  0  0  0
 38 10  1  6  0  0  0
 39 44  1  6  0  0  0
 41 45  1  1  0  0  0
 43 46  1  1  0  0  0
 42 47  1  1  0  0  0
 48 47  1  0  0  0  0
M  END
> <ID>
CHEBI:68475

> <NAME>
alpha-D-Galp-(1->3)-[alpha-D-Galp-(1->4)]-beta-D-Galp-(1->4)-beta-D-GlcpNAc

> <DEFINITION>
A branched amino tetrasaccharide comprising an α-D-galactosyl-(1→3)-β-D-galactopsyl-(1→4)-N-acetyl-β-D-glucosamine linear trisaccharide, the central galactoside residue of which is linked to a further α-D-galactose residue via an α(1→4) glycosidic bond.

> <STAR>
3

> <SYNONYM>
Galalpha1-3(Galalpha1-4)Galbeta1-4GlcNAcbeta; Gala1-4(Gala1-3)Galb1-4GlcNAcb; alpha-D-galactosyl-(1->3)-[alpha-D-galactosyl-(1->4)]-beta-D-galactopsyl-(1->4)-N-acetyl-beta-D-glucosamine; alpha-D-Gal-(1->3)-[alpha-D-Gal-(1->4)]-beta-D-Gal-(1->4)-beta-D-GlcNAc

> <IUPAC_NAME>
alpha-D-galactopyranosyl-(1->3)-[alpha-D-galactopyranosyl-(1->4)]-beta-D-galactopyranosyl-(1->4)-2-acetamido-2-deoxy-beta-D-glucopyranose

> <FORMULA>
C26H45NO21

> <MASS>
707.62960

> <MONOISOTOPIC_MASS>
707.24841

> <CHARGE>
0

> <SMILES>
CC(=O)N[C@H]1[C@H](O)O[C@H](CO)[C@@H](O[C@@H]2O[C@H](CO)[C@H](O[C@H]3O[C@H](CO)[C@H](O)[C@H](O)[C@H]3O)[C@H](O[C@H]3O[C@H](CO)[C@H](O)[C@H](O)[C@H]3O)[C@H]2O)[C@@H]1O

> <INCHI>
InChI=1S/C26H45NO21/c1-6(32)27-11-14(35)20(9(4-30)42-23(11)41)46-26-19(40)22(48-25-18(39)16(37)13(34)8(3-29)44-25)21(10(5-31)45-26)47-24-17(38)15(36)12(33)7(2-28)43-24/h7-26,28-31,33-41H,2-5H2,1H3,(H,27,32)/t7-,8-,9-,10-,11-,12+,13+,14-,15+,16+,17-,18-,19-,20-,21+,22-,23-,24-,25-,26+/m1/s1

> <INCHIKEY>
VYGRTCAAPYRQGN-FZWUXOPLSA-N

> <PUBMED_CITATION>
19443021; 25568069; 31537530

$$$$

Marvin  09191217082D          

 37 39  0  0  0  0            999 V2000
    0.4117    1.1077    0.0000 C   0  0  1  0  0  0  0  0  0  0  0  0
    0.4117    0.2827    0.0000 C   0  0  1  0  0  0  0  0  0  0  0  0
   -0.3028    1.5202    0.0000 O   0  0  0  0  0  0  0  0  0  0  0  0
   -0.3028   -0.1299    0.0000 C   0  0  2  0  0  0  0  0  0  0  0  0
   -1.0172    1.1077    0.0000 C   0  0  1  0  0  0  0  0  0  0  0  0
   -1.0172    0.2827    0.0000 C   0  0  2  0  0  0  0  0  0  0  0  0
    1.1261   -0.1299    0.0000 O   0  0  0  0  0  0  0  0  0  0  0  0
   -0.3029   -0.9549    0.0000 O   0  0  0  0  0  0  0  0  0  0  0  0
   -1.7318   -0.1299    0.0000 O   0  0  0  0  0  0  0  0  0  0  0  0
   -1.7318    1.5202    0.0000 C   0  0  0  0  0  0  0  0  0  0  0  0
   -2.4461    1.1077    0.0000 O   0  0  0  0  0  0  0  0  0  0  0  0
   -1.0174   -1.3673    0.0000 C   0  0  2  0  0  0  0  0  0  0  0  0
   -1.0174   -2.1923    0.0000 C   0  0  1  0  0  0  0  0  0  0  0  0
   -1.7318   -0.9549    0.0000 O   0  0  0  0  0  0  0  0  0  0  0  0
   -1.7318   -2.6048    0.0000 C   0  0  2  0  0  0  0  0  0  0  0  0
   -2.4462   -1.3673    0.0000 C   0  0  1  0  0  0  0  0  0  0  0  0
   -2.4462   -2.1923    0.0000 C   0  0  2  0  0  0  0  0  0  0  0  0
   -0.3029   -2.6048    0.0000 O   0  0  0  0  0  0  0  0  0  0  0  0
   -1.7318   -3.4298    0.0000 O   0  0  0  0  0  0  0  0  0  0  0  0
   -3.1608   -2.6048    0.0000 O   0  0  0  0  0  0  0  0  0  0  0  0
   -3.1608   -0.9549    0.0000 C   0  0  0  0  0  0  0  0  0  0  0  0
   -3.8752   -1.3673    0.0000 O   0  0  0  0  0  0  0  0  0  0  0  0
    1.1261    1.5202    0.0000 O   0  0  0  0  0  0  0  0  0  0  0  0
    2.5550    3.9952    0.0000 O   0  0  0  0  0  0  0  0  0  0  0  0
    1.8407    3.5827    0.0000 C   0  0  1  0  0  0  0  0  0  0  0  0
    1.8407    2.7577    0.0000 C   0  0  1  0  0  0  0  0  0  0  0  0
    1.1263    3.9952    0.0000 O   0  0  0  0  0  0  0  0  0  0  0  0
    1.1263    2.3452    0.0000 C   0  0  2  0  0  0  0  0  0  0  0  0
    0.4117    3.5827    0.0000 C   0  0  1  0  0  0  0  0  0  0  0  0
    0.4117    2.7577    0.0000 C   0  0  1  0  0  0  0  0  0  0  0  0
    2.5550    2.3452    0.0000 N   0  0  0  0  0  0  0  0  0  0  0  0
   -0.3027    2.3452    0.0000 O   0  0  0  0  0  0  0  0  0  0  0  0
   -0.3027    3.9952    0.0000 C   0  0  0  0  0  0  0  0  0  0  0  0
   -1.0172    3.5827    0.0000 O   0  0  0  0  0  0  0  0  0  0  0  0
    3.2695    2.7577    0.0000 C   0  0  0  0  0  0  0  0  0  0  0  0
    3.2696    3.5827    0.0000 O   0  0  0  0  0  0  0  0  0  0  0  0
    3.9840    2.3452    0.0000 C   0  0  0  0  0  0  0  0  0  0  0  0
  1  2  1  0  0  0  0
  1  3  1  0  0  0  0
  1 23  1  1  0  0  0
  2  4  1  0  0  0  0
  2  7  1  6  0  0  0
  3  5  1  0  0  0  0
  4  6  1  0  0  0  0
  4  8  1  1  0  0  0
  5  6  1  0  0  0  0
  5 10  1  1  0  0  0
  6  9  1  1  0  0  0
 12  8  1  6  0  0  0
 11 10  1  0  0  0  0
 12 13  1  0  0  0  0
 12 14  1  0  0  0  0
 13 15  1  0  0  0  0
 13 18  1  6  0  0  0
 14 16  1  0  0  0  0
 15 17  1  0  0  0  0
 15 19  1  1  0  0  0
 16 17  1  0  0  0  0
 16 21  1  1  0  0  0
 17 20  1  1  0  0  0
 22 21  1  0  0  0  0
 28 23  1  1  0  0  0
 25 24  1  1  0  0  0
 25 26  1  0  0  0  0
 25 27  1  0  0  0  0
 26 28  1  0  0  0  0
 26 31  1  6  0  0  0
 27 29  1  0  0  0  0
 28 30  1  0  0  0  0
 29 30  1  0  0  0  0
 29 33  1  1  0  0  0
 30 32  1  6  0  0  0
 31 35  1  0  0  0  0
 34 33  1  0  0  0  0
 36 35  2  0  0  0  0
 37 35  1  0  0  0  0
M  END
> <ID>
CHEBI:68476

> <NAME>
alpha-D-Gal-(1->3)-beta-D-Gal-(1->3)-beta-D-GlcNAc

> <DEFINITION>
α-D-Gal-(1→3)-β-D-Gal-(1→3)-D-GlcNAc with β-configuration at the GlcNAc anomeric centre.

> <STAR>
3

> <SYNONYM>
Galalpha1-3Galbeta1-3GlcNAcbeta; Gala1-3Galb1-3GlcNAcb; alphaGal1-3betaGal1-3betaGlcNAc; alpha-D-Galp-(1->3)-beta-D-Galp-(1->3)-beta-D-GlcNAc; alpha-D-galactosyl-(1->3)-beta-D-galactosyl-(1->3)-N-acetyl-beta-D-glucosamine

> <IUPAC_NAME>
alpha-D-galactopyranosyl-(1->3)-beta-D-galactopyranosyl-(1->3)-2-acetamido-2-deoxy-beta-D-glucopyranose

> <FORMULA>
C20H35NO16

> <MASS>
545.48900

> <MONOISOTOPIC_MASS>
545.19558

> <CHARGE>
0

> <SMILES>
CC(=O)N[C@H]1[C@H](O)O[C@H](CO)[C@@H](O)[C@@H]1O[C@@H]1O[C@H](CO)[C@H](O)[C@H](O[C@H]2O[C@H](CO)[C@H](O)[C@H](O)[C@H]2O)[C@H]1O

> <INCHI>
InChI=1S/C20H35NO16/c1-5(25)21-9-16(11(27)7(3-23)33-18(9)32)36-20-15(31)17(12(28)8(4-24)35-20)37-19-14(30)13(29)10(26)6(2-22)34-19/h6-20,22-24,26-32H,2-4H2,1H3,(H,21,25)/t6-,7-,8-,9-,10+,11-,12+,13+,14-,15-,16-,17+,18-,19-,20+/m1/s1

> <INCHIKEY>
CGMBNPCAOYSHCK-QKUIVJGGSA-N

> <REAXYS_REGISTRY_NUMBER>
14254221

> <PUBMED_CITATION>
19443021; 25568069; 31537530

$$$$

Marvin  09201216152D          

 34 36  0  0  1  0            999 V2000
    6.6313  -10.2977    0.0000 C   0  0  2  0  0  0  0  0  0  0  0  0
    6.6313  -11.1227    0.0000 C   0  0  1  0  0  0  0  0  0  0  0  0
    5.9168   -9.8852    0.0000 O   0  0  0  0  0  0  0  0  0  0  0  0
    5.9168  -11.5352    0.0000 C   0  0  2  0  0  0  0  0  0  0  0  0
    5.2023  -10.2977    0.0000 C   0  0  1  0  0  0  0  0  0  0  0  0
    5.2023  -11.1227    0.0000 C   0  0  2  0  0  0  0  0  0  0  0  0
    7.3458   -9.8852    0.0000 O   0  0  0  0  0  0  0  0  0  0  0  0
    7.3458  -11.5352    0.0000 O   0  0  0  0  0  0  0  0  0  0  0  0
    5.9167  -12.3602    0.0000 O   0  0  0  0  0  0  0  0  0  0  0  0
    4.4879  -11.5352    0.0000 O   0  0  0  0  0  0  0  0  0  0  0  0
    4.4879   -9.8852    0.0000 C   0  0  0  0  0  0  0  0  0  0  0  0
    3.7734  -10.2977    0.0000 O   0  0  0  0  0  0  0  0  0  0  0  0
    9.4892   -8.6477    0.0000 C   0  0  1  0  0  0  0  0  0  0  0  0
    9.4892   -9.4727    0.0000 C   0  0  1  0  0  0  0  0  0  0  0  0
    8.7747   -8.2352    0.0000 O   0  0  0  0  0  0  0  0  0  0  0  0
    8.7747   -9.8852    0.0000 C   0  0  2  0  0  0  0  0  0  0  0  0
    8.0602   -8.6477    0.0000 C   0  0  1  0  0  0  0  0  0  0  0  0
    8.0602   -9.4727    0.0000 C   0  0  2  0  0  0  0  0  0  0  0  0
   10.2036   -8.2352    0.0000 O   0  0  0  0  0  0  0  0  0  0  0  0
   10.2036   -9.8852    0.0000 O   0  0  0  0  0  0  0  0  0  0  0  0
    8.7747  -10.7102    0.0000 O   0  0  0  0  0  0  0  0  0  0  0  0
    7.3458   -8.2352    0.0000 C   0  0  0  0  0  0  0  0  0  0  0  0
    6.6313   -8.6477    0.0000 O   0  0  0  0  0  0  0  0  0  0  0  0
   12.3471   -6.9977    0.0000 C   0  0  1  0  0  0  0  0  0  0  0  0
   12.3471   -7.8227    0.0000 C   0  0  1  0  0  0  0  0  0  0  0  0
   11.6326   -6.5852    0.0000 O   0  0  0  0  0  0  0  0  0  0  0  0
   11.6326   -8.2352    0.0000 C   0  0  2  0  0  0  0  0  0  0  0  0
   10.9182   -6.9977    0.0000 C   0  0  1  0  0  0  0  0  0  0  0  0
   10.9182   -7.8227    0.0000 C   0  0  1  0  0  0  0  0  0  0  0  0
   13.0615   -8.2352    0.0000 O   0  0  0  0  0  0  0  0  0  0  0  0
   11.6326   -9.0602    0.0000 O   0  0  0  0  0  0  0  0  0  0  0  0
   10.2036   -6.5852    0.0000 C   0  0  0  0  0  0  0  0  0  0  0  0
    9.4892   -6.9977    0.0000 O   0  0  0  0  0  0  0  0  0  0  0  0
   13.0615   -6.5852    0.0000 O   0  0  0  0  0  0  0  0  0  0  0  0
  1  2  1  0  0  0  0
  1  3  1  0  0  0  0
  2  4  1  0  0  0  0
  3  5  1  0  0  0  0
  4  6  1  0  0  0  0
  5  6  1  0  0  0  0
  1  7  1  6  0  0  0
  2  8  1  6  0  0  0
  4  9  1  1  0  0  0
  6 10  1  1  0  0  0
  5 11  1  1  0  0  0
 12 11  1  0  0  0  0
 13 14  1  0  0  0  0
 13 15  1  0  0  0  0
 14 16  1  0  0  0  0
 15 17  1  0  0  0  0
 16 18  1  0  0  0  0
 17 18  1  0  0  0  0
 13 19  1  1  0  0  0
 14 20  1  6  0  0  0
 16 21  1  1  0  0  0
 18  7  1  1  0  0  0
 17 22  1  1  0  0  0
 23 22  1  0  0  0  0
 24 25  1  0  0  0  0
 24 26  1  0  0  0  0
 25 27  1  0  0  0  0
 26 28  1  0  0  0  0
 27 29  1  0  0  0  0
 28 29  1  0  0  0  0
 25 30  1  6  0  0  0
 27 31  1  1  0  0  0
 29 19  1  6  0  0  0
 28 32  1  1  0  0  0
 33 32  1  0  0  0  0
 24 34  1  1  0  0  0
M  END
> <ID>
CHEBI:68485

> <NAME>
alpha-D-Galp-(1->4)-beta-D-Galp-(1->4)-beta-D-Glcp

> <DEFINITION>
α-D-Galp-(1→4)-β-D-Galp-(1→4)-D-Glcp with β-configuration at the reducing end anomeric centre.

> <STAR>
3

> <SYNONYM>
Galalpha1-4Galbeta1-4Glcbeta; Gala1-4Galb1-4Glcb; alpha-D-galactosyl-(1->4)-beta-D-galactosyl-(1->4)-beta-D-glucose; alpha-D-Gal-(1->4)-beta-D-Gal-(1->4)-D-Glc

> <IUPAC_NAME>
alpha-D-galactopyranosyl-(1->4)-beta-D-galactopyranosyl-(1->4)-beta-D-glucopyranose

> <FORMULA>
C18H32O16

> <MASS>
504.43710

> <MONOISOTOPIC_MASS>
504.16903

> <CHARGE>
0

> <SMILES>
OC[C@H]1O[C@H](O[C@H]2[C@@H](CO)O[C@@H](O[C@@H]3[C@@H](CO)O[C@@H](O)[C@H](O)[C@H]3O)[C@H](O)[C@H]2O)[C@H](O)[C@@H](O)[C@H]1O

> <INCHI>
InChI=1S/C18H32O16/c19-1-4-7(22)8(23)12(27)17(31-4)34-15-6(3-21)32-18(13(28)10(15)25)33-14-5(2-20)30-16(29)11(26)9(14)24/h4-29H,1-3H2/t4-,5-,6-,7+,8+,9-,10-,11-,12-,13-,14-,15+,16-,17-,18+/m1/s1

> <INCHIKEY>
FYGDTMLNYKFZSV-SKWQFERISA-N

> <PUBMED_CITATION>
19443021; 25568069; 31537530

$$$$

Marvin  09271216122D          

 23 24  0  0  1  0            999 V2000
   17.1203  -26.3579    0.0000 C   0  0  1  0  0  0  0  0  0  0  0  0
   16.4058  -26.7704    0.0000 C   0  0  1  0  0  0  0  0  0  0  0  0
   17.1203  -25.5328    0.0000 O   0  0  0  0  0  0  0  0  0  0  0  0
   15.6914  -26.3579    0.0000 C   0  0  2  0  0  0  0  0  0  0  0  0
   16.4058  -25.1204    0.0000 C   0  0  1  0  0  0  0  0  0  0  0  0
   15.6914  -25.5329    0.0000 C   0  0  2  0  0  0  0  0  0  0  0  0
   17.8348  -26.7704    0.0000 O   0  0  0  0  0  0  0  0  0  0  0  0
   16.4058  -27.5954    0.0000 O   0  0  0  0  0  0  0  0  0  0  0  0
   14.9769  -26.7704    0.0000 O   0  0  0  0  0  0  0  0  0  0  0  0
   14.9769  -25.1204    0.0000 O   0  0  0  0  0  0  0  0  0  0  0  0
   16.4058  -24.2954    0.0000 C   0  0  0  0  0  0  0  0  0  0  0  0
   15.6913  -23.8829    0.0000 O   0  0  0  0  0  0  0  0  0  0  0  0
   15.6914  -28.0079    0.0000 C   0  0  1  0  0  0  0  0  0  0  0  0
   15.6914  -28.8329    0.0000 C   0  0  1  0  0  0  0  0  0  0  0  0
   14.9769  -27.5954    0.0000 O   0  0  0  0  0  0  0  0  0  0  0  0
   14.9769  -29.2454    0.0000 C   0  0  2  0  0  0  0  0  0  0  0  0
   14.2624  -28.0079    0.0000 C   0  0  1  0  0  0  0  0  0  0  0  0
   14.2624  -28.8329    0.0000 C   0  0  2  0  0  0  0  0  0  0  0  0
   16.4058  -29.2455    0.0000 O   0  0  0  0  0  0  0  0  0  0  0  0
   14.9769  -30.0704    0.0000 O   0  0  0  0  0  0  0  0  0  0  0  0
   13.5479  -29.2454    0.0000 O   0  0  0  0  0  0  0  0  0  0  0  0
   13.5479  -27.5954    0.0000 C   0  0  0  0  0  0  0  0  0  0  0  0
   12.8335  -28.0079    0.0000 O   0  0  0  0  0  0  0  0  0  0  0  0
  1  2  1  0  0  0  0
  1  3  1  0  0  0  0
  2  4  1  0  0  0  0
  3  5  1  0  0  0  0
  4  6  1  0  0  0  0
  5  6  1  0  0  0  0
  1  7  1  1  0  0  0
  2  8  1  6  0  0  0
  4  9  1  1  0  0  0
  6 10  1  1  0  0  0
  5 11  1  1  0  0  0
 12 11  1  0  0  0  0
 13 14  1  0  0  0  0
 13 15  1  0  0  0  0
 14 16  1  0  0  0  0
 15 17  1  0  0  0  0
 16 18  1  0  0  0  0
 17 18  1  0  0  0  0
 13  8  1  1  0  0  0
 14 19  1  6  0  0  0
 16 20  1  1  0  0  0
 18 21  1  1  0  0  0
 17 22  1  1  0  0  0
 23 22  1  0  0  0  0
M  END
> <ID>
CHEBI:68541

> <NAME>
beta-D-Galp-(1->2)-beta-D-Galp

> <DEFINITION>
A glycosylgalactose comprised of two β-D-galactose residues linked (1→2).

> <STAR>
3

> <SYNONYM>
Galbeta1-2Galbeta; Galb1-2Galb; beta-D-galactosyl-(1->2)-beta-D-galactose; beta-D-Gal-(1->2)-beta-D-Gal; 2-O-beta-D-galactopyranosyl-beta-D-galactopyranose

> <IUPAC_NAME>
beta-D-galactopyranosyl-(1->2)-beta-D-galactopyranose

> <FORMULA>
C12H22O11

> <MASS>
342.29650

> <MONOISOTOPIC_MASS>
342.11621

> <CHARGE>
0

> <SMILES>
OC[C@H]1O[C@@H](O)[C@H](O[C@@H]2O[C@H](CO)[C@H](O)[C@H](O)[C@H]2O)[C@@H](O)[C@H]1O

> <INCHI>
InChI=1S/C12H22O11/c13-1-3-6(16)8(18)10(11(20)21-3)23-12-9(19)7(17)5(15)4(2-14)22-12/h3-20H,1-2H2/t3-,4-,5+,6+,7+,8+,9-,10-,11-,12+/m1/s1

> <INCHIKEY>
HIWPGCMGAMJNRG-VXWMIPRGSA-N

> <REAXYS_REGISTRY_NUMBER>
5290497

> <PUBMED_CITATION>
19443021; 25568069

$$$$

Marvin  10011210332D          

 36 40  0  0  1  0            999 V2000
   10.0491  -10.2590    0.0000 N   0  0  0  0  0  0  0  0  0  0  0  0
   10.6973  -10.6950    0.0000 C   0  0  0  0  0  0  0  0  0  0  0  0
    9.3066  -10.5065    0.0000 C   0  0  2  0  0  0  0  0  0  0  0  0
   10.4203   -9.4340    0.0000 N   0  0  0  0  0  0  0  0  0  0  0  0
   11.4103  -10.3002    0.0000 C   0  0  0  0  0  0  0  0  0  0  0  0
   10.6682  -11.6202    0.0000 N   0  0  0  0  0  0  0  0  0  0  0  0
    8.6466  -10.0114    0.0000 C   0  0  0  0  0  0  0  0  0  0  0  0
    9.0591  -11.2490    0.0000 C   0  0  1  0  0  0  0  0  0  0  0  0
   11.2866   -9.5577    0.0000 N   0  0  0  0  0  0  0  0  0  0  0  0
   12.1116  -10.7127    0.0000 C   0  0  0  0  0  0  0  0  0  0  0  0
   11.3690  -12.0327    0.0000 C   0  0  0  0  0  0  0  0  0  0  0  0
    7.9866  -10.4652    0.0000 C   0  0  1  0  0  0  0  0  0  0  0  0
    8.2340  -11.2490    0.0000 C   0  0  1  0  0  0  0  0  0  0  0  0
    9.5128  -11.9090    0.0000 O   0  0  0  0  0  0  0  0  0  0  0  0
   12.1112  -11.5789    0.0000 N   0  0  0  0  0  0  0  0  0  0  0  0
   12.8541  -10.3002    0.0000 N   0  0  0  0  0  0  0  0  0  0  0  0
    7.2028  -10.2177    0.0000 O   0  0  0  0  0  0  0  0  0  0  0  0
    7.9866  -11.9915    0.0000 O   0  0  0  0  0  0  0  0  0  0  0  0
   11.3695  -12.8165    0.0000 S   0  0  0  0  0  0  0  0  0  0  0  0
   12.0703  -13.2290    0.0000 C   0  0  0  0  0  0  0  0  0  0  0  0
   12.7716  -12.8165    0.0000 C   0  0  0  0  0  0  0  0  0  0  0  0
    6.4884  -10.6302    0.0000 C   0  0  0  0  0  0  0  0  0  0  0  0
    5.7739  -10.2177    0.0000 C   0  0  0  0  0  0  0  0  0  0  0  0
    5.0594  -10.6302    0.0000 O   0  0  0  0  0  0  0  0  0  0  0  0
   13.4894  -13.2231    0.0000 C   0  0  0  0  0  0  0  0  0  0  0  0
   13.5685  -10.7127    0.0000 C   0  0  1  0  0  0  0  0  0  0  0  0
   14.3963  -10.6900    0.0000 C   0  0  1  0  0  0  0  0  0  0  0  0
   13.9643  -11.4337    0.0000 C   0  0  0  0  0  0  0  0  0  0  0  0
   15.1155  -10.2625    0.0000 C   0  0  0  0  0  0  0  0  0  0  0  0
   15.1048   -9.4187    0.0000 C   0  0  0  0  0  0  0  0  0  0  0  0
   15.8140   -8.9971    0.0000 C   0  0  0  0  0  0  0  0  0  0  0  0
   16.5332   -9.4006    0.0000 C   0  0  0  0  0  0  0  0  0  0  0  0
   16.5444  -10.2444    0.0000 C   0  0  0  0  0  0  0  0  0  0  0  0
   15.8351  -10.6659    0.0000 C   0  0  0  0  0  0  0  0  0  0  0  0
   15.8037   -8.1812    0.0000 F   0  0  0  0  0  0  0  0  0  0  0  0
   17.2235   -8.9907    0.0000 F   0  0  0  0  0  0  0  0  0  0  0  0
  1  2  1  0  0  0  0
  3  1  1  1  0  0  0
  1  4  1  0  0  0  0
  2  5  2  0  0  0  0
  2  6  1  0  0  0  0
  3  7  1  0  0  0  0
  3  8  1  0  0  0  0
  4  9  2  0  0  0  0
  5 10  1  0  0  0  0
  6 11  2  0  0  0  0
  7 12  1  0  0  0  0
  8 13  1  0  0  0  0
  8 14  1  6  0  0  0
 10 15  2  0  0  0  0
 10 16  1  0  0  0  0
 12 17  1  1  0  0  0
 13 18  1  6  0  0  0
  5  9  1  0  0  0  0
 11 15  1  0  0  0  0
 12 13  1  0  0  0  0
 11 19  1  0  0  0  0
 19 20  1  0  0  0  0
 20 21  1  0  0  0  0
 17 22  1  0  0  0  0
 22 23  1  0  0  0  0
 23 24  1  0  0  0  0
 21 25  1  0  0  0  0
 26 27  1  0  0  0  0
 27 28  1  0  0  0  0
 28 26  1  0  0  0  0
 27 29  1  6  0  0  0
 29 30  2  0  0  0  0
 30 31  1  0  0  0  0
 31 32  2  0  0  0  0
 32 33  1  0  0  0  0
 33 34  2  0  0  0  0
 29 34  1  0  0  0  0
 31 35  1  0  0  0  0
 32 36  1  0  0  0  0
 26 16  1  1  0  0  0
M  END
> <ID>
CHEBI:68558

> <NAME>
ticagrelor

> <DEFINITION>
A triazolopyrimidine that is an adenosine isostere; the cyclopentane ring is similar to ribose and the nitrogen-rich [1,2,3]triazolo[4,5-d]pyrimidine moiety resembles the nucleobase adenine. A platelet aggregation inhibitor which is used for prevention of thromboembolic events in patients with acute coronary syndrome.

> <STAR>
3

> <SYNONYM>
AZD6140; AZD-6140; AZD 6140; (1S,2S,3R,5S)-3-(7-((1R,2S)-2-(3,4-Difluorophenyl)cyclopropylamino)-5-(propylthio)-3H-(1,2,3)triazolo(4,5-d)pyrimidin-3-yl)-5-(2-hydroxyethoxy)cyclopentane-1,2-diol

> <IUPAC_NAME>
(1S,2S,3R,5S)-3-[7-{[(1R,2S)-2-(3,4-difluorophenyl)cyclopropyl]amino}-5-(propylsulfanyl)-3H-[1,2,3]triazolo[4,5-d]pyrimidin-3-yl]-5-(2-hydroxyethoxy)cyclopentane-1,2-diol

> <INN>
ticagrelor

> <BRAND_NAME>
Brilinta

> <FORMULA>
C23H28F2N6O4S

> <MASS>
522.56800

> <MONOISOTOPIC_MASS>
522.18608

> <CHARGE>
0

> <SMILES>
CCCSc1nc(N[C@@H]2C[C@H]2c2ccc(F)c(F)c2)c2nnn([C@@H]3C[C@H](OCCO)[C@@H](O)[C@H]3O)c2n1

> <INCHI>
InChI=1S/C23H28F2N6O4S/c1-2-7-36-23-27-21(26-15-9-12(15)11-3-4-13(24)14(25)8-11)18-22(28-23)31(30-29-18)16-10-17(35-6-5-32)20(34)19(16)33/h3-4,8,12,15-17,19-20,32-34H,2,5-7,9-10H2,1H3,(H,26,27,28)/t12-,15+,16+,17-,19-,20+/m0/s1

> <INCHIKEY>
OEKWJQXRCDYSHL-FNOIDJSQSA-N

> <CAS_REGISTRY_NUMBER>
274693-27-5

> <REAXYS_REGISTRY_NUMBER>
15468079

> <CHEMIDPLUS>
274693-27-5

> <HMDB_ACCESSION>
HMDB0015702

> <KEGG_DRUG_ACCESSION>
D09017

> <PUBMED_CITATION>
22991347

$$$$

CDK     1018121543

 19 18  0  0  0  0  0  0  0  0999 V2000
    2.4774   -5.7255    0.0000 C   0  0  0  0  0  0  0  0  0  0  0  0
    3.1919   -6.1380    0.0000 C   0  0  0  0  0  0  0  0  0  0  0  0
    3.9064   -5.7255    0.0000 C   0  0  0  0  0  0  0  0  0  0  0  0
    4.6208   -6.1380    0.0000 C   0  0  0  0  0  0  0  0  0  0  0  0
    5.3353   -5.7255    0.0000 C   0  0  0  0  0  0  0  0  0  0  0  0
    6.0498   -6.1380    0.0000 C   0  0  0  0  0  0  0  0  0  0  0  0
    6.7642   -5.7255    0.0000 C   0  0  0  0  0  0  0  0  0  0  0  0
    7.4787   -6.1380    0.0000 C   0  0  0  0  0  0  0  0  0  0  0  0
    8.1932   -5.7255    0.0000 C   0  0  0  0  0  0  0  0  0  0  0  0
    8.9077   -6.1380    0.0000 C   0  0  0  0  0  0  0  0  0  0  0  0
    9.6221   -5.7255    0.0000 C   0  0  0  0  0  0  0  0  0  0  0  0
   10.3366   -6.1380    0.0000 C   0  0  0  0  0  0  0  0  0  0  0  0
   11.0511   -5.7255    0.0000 C   0  0  0  0  0  0  0  0  0  0  0  0
   11.7655   -6.1380    0.0000 C   0  0  0  0  0  0  0  0  0  0  0  0
   12.4800   -5.7255    0.0000 C   0  0  0  0  0  0  0  0  0  0  0  0
   13.1945   -6.1380    0.0000 C   0  0  0  0  0  0  0  0  0  0  0  0
    2.4774   -4.9005    0.0000 O   0  0  0  0  0  0  0  0  0  0  0  0
    1.7629   -6.1380    0.0000 O   0  0  0  0  0  0  0  0  0  0  0  0
    1.7629   -6.9630    0.0000 C   0  0  0  0  0  0  0  0  0  0  0  0
  1  2  1  0  0  0  0 
  2  3  1  0  0  0  0 
  3  4  1  0  0  0  0 
  4  5  1  0  0  0  0 
  5  6  1  0  0  0  0 
  6  7  1  0  0  0  0 
  7  8  1  0  0  0  0 
  8  9  1  0  0  0  0 
  9 10  1  0  0  0  0 
 10 11  1  0  0  0  0 
 11 12  1  0  0  0  0 
 12 13  1  0  0  0  0 
 13 14  1  0  0  0  0 
 14 15  1  0  0  0  0 
 15 16  1  0  0  0  0 
  1 17  2  0  0  0  0 
  1 18  1  0  0  0  0 
 18 19  1  0  0  0  0 
M  END
> <ID>
CHEBI:69187

> <NAME>
Methyl palmitate

> <DEFINITION>
A natural product found in Neolitsea daibuensis. 

> <STAR>
2

> <SYNONYM>
Methyl palmitic acid; Methyl palmitate; Methyl hexadecanoate; methyl hexadecanoate; Hexadecanoic acid methyl ester; Hexadecanoate methyl ester

> <FORMULA>
C17H34O2

> <MASS>
270.45070

> <MONOISOTOPIC_MASS>
270.25588

> <CHARGE>
0

> <SMILES>
CCCCCCCCCCCCCCCC(=O)OC

> <INCHI>
InChI=1S/C17H34O2/c1-3-4-5-6-7-8-9-10-11-12-13-14-15-16-17(18)19-2/h3-16H2,1-2H3

> <INCHIKEY>
FLIACVVOZYBSBS-UHFFFAOYSA-N

> <CAS_REGISTRY_NUMBER>
112-39-0

> <HMDB_ACCESSION>
HMDB0061859

> <KEGG_COMPOUND_ACCESSION>
C16995

> <PUBMED_CITATION>
118159; 12143008; 12872920; 12939035; 13018208; 13827622; 1707612; 21240761; 22148193; 24421258; 3833822; 8130610

$$$$

Marvin  10241212052D          

 47 51  0  0  1  0            999 V2000
   27.4320  -20.1604    0.0000 C   0  0  1  0  0  0  0  0  0  0  0  0
   25.9820  -20.4888    0.0000 C   0  0  1  0  0  0  0  0  0  0  0  0
   25.6254  -19.7449    0.0000 C   0  0  1  0  0  0  0  0  0  0  0  0
   26.7860  -20.6737    0.0000 O   0  0  0  0  0  0  0  0  0  0  0  0
   25.9846  -19.0021    0.0000 C   0  0  0  0  0  0  0  0  0  0  0  0
   27.4335  -19.3354    0.0000 C   0  0  2  0  0  0  0  0  0  0  0  0
   26.7893  -18.8199    0.0000 C   0  0  0  0  0  0  0  0  0  0  0  0
   24.1761  -20.9008    0.0000 C   0  0  2  0  0  0  0  0  0  0  0  0
   24.8214  -21.4151    0.0000 C   0  0  0  0  0  0  0  0  0  0  0  0
   24.1761  -20.0758    0.0000 C   0  0  1  0  0  0  0  0  0  0  0  0
   25.6256  -21.2314    0.0000 C   0  0  0  0  0  0  0  0  0  0  0  0
   24.8210  -19.5614    0.0000 O   0  0  0  0  0  0  0  0  0  0  0  0
   23.4617  -21.3134    0.0000 O   0  0  0  0  0  0  0  0  0  0  0  0
   22.7473  -20.9009    0.0000 C   0  0  2  0  0  0  0  0  0  0  0  0
   23.4616  -19.6633    0.0000 C   0  0  0  0  0  0  0  0  0  0  0  0
   22.7473  -20.0759    0.0000 C   0  0  1  0  0  0  0  0  0  0  0  0
   22.0329  -21.3133    0.0000 C   0  0  1  0  0  0  0  0  0  0  0  0
   21.3184  -20.9008    0.0000 C   0  0  2  0  0  0  0  0  0  0  0  0
   22.0328  -19.6635    0.0000 O   0  0  0  0  0  0  0  0  0  0  0  0
   21.3184  -20.0759    0.0000 C   0  0  1  0  0  0  0  0  0  0  0  0
   19.9239  -21.1851    0.0000 C   0  0  1  0  0  0  0  0  0  0  0  0
   19.5120  -20.4852    0.0000 C   0  0  0  0  0  0  0  0  0  0  0  0
   20.6726  -21.4142    0.0000 O   0  0  0  0  0  0  0  0  0  0  0  0
   19.8712  -19.7425    0.0000 C   0  0  0  0  0  0  0  0  0  0  0  0
   20.6758  -19.5603    0.0000 C   0  0  0  0  0  0  0  0  0  0  0  0
   19.4129  -21.8329    0.0000 C   0  0  0  0  0  0  0  0  0  0  0  0
   18.5965  -21.7144    0.0000 C   0  0  0  0  0  0  0  0  0  0  0  0
   18.0857  -22.3620    0.0000 C   0  0  1  0  0  0  0  0  0  0  0  0
   17.2692  -22.2435    0.0000 C   0  0  0  0  0  0  0  0  0  0  0  0
   16.7583  -22.8913    0.0000 O   0  0  0  0  0  0  0  0  0  0  0  0
   18.3186  -23.0221    0.0000 O   0  0  0  0  0  0  0  0  0  0  0  0
   20.1876  -21.9761    0.0000 H   0  0  0  0  0  0  0  0  0  0  0  0
   21.4370  -21.8551    0.0000 H   0  0  0  0  0  0  0  0  0  0  0  0
   22.7931  -21.7797    0.0000 H   0  0  0  0  0  0  0  0  0  0  0  0
   24.2986  -21.8668    0.0000 H   0  0  0  0  0  0  0  0  0  0  0  0
   26.4113  -21.4802    0.0000 H   0  0  0  0  0  0  0  0  0  0  0  0
   22.0718  -22.1731    0.0000 O   0  0  0  0  0  0  0  0  0  0  0  0
   21.2543  -19.1784    0.0000 H   0  0  0  0  0  0  0  0  0  0  0  0
   22.7441  -19.1573    0.0000 H   0  0  0  0  0  0  0  0  0  0  0  0
   24.2907  -18.9302    0.0000 H   0  0  0  0  0  0  0  0  0  0  0  0
   25.1214  -18.9519    0.0000 H   0  0  0  0  0  0  0  0  0  0  0  0
   28.1775  -18.9788    0.0000 O   0  0  0  0  0  0  0  0  0  0  0  0
   27.3294  -18.3434    0.0000 H   0  0  0  0  0  0  0  0  0  0  0  0
   28.1746  -20.5196    0.0000 C   0  0  0  0  0  0  0  0  0  0  0  0
   28.2348  -21.3425    0.0000 C   0  0  0  0  0  0  0  0  0  0  0  0
   28.9775  -21.7017    0.0000 C   0  0  0  0  0  0  0  0  0  0  0  0
   27.4394  -20.9787    0.0000 H   0  0  0  0  0  0  0  0  0  0  0  0
  4  2  1  0  0  0  0
  5  3  1  0  0  0  0
  1  4  1  0  0  0  0
  7  5  2  0  0  0  0
  6  1  1  0  0  0  0
  7  6  1  0  0  0  0
  9  8  1  0  0  0  0
 11  9  2  0  0  0  0
 12 10  1  0  0  0  0
  2 11  1  0  0  0  0
  3 12  1  0  0  0  0
  2  3  1  0  0  0  0
 13  8  1  0  0  0  0
 10  8  1  0  0  0  0
 14 13  1  0  0  0  0
 15 10  1  0  0  0  0
 16 15  1  0  0  0  0
 17 14  1  0  0  0  0
 16 14  1  0  0  0  0
 18 17  1  0  0  0  0
 19 16  1  0  0  0  0
 20 19  1  0  0  0  0
 22 21  1  0  0  0  0
 23 21  1  0  0  0  0
 24 22  2  0  0  0  0
 18 23  1  0  0  0  0
 25 24  1  0  0  0  0
 20 18  1  0  0  0  0
 25 20  1  0  0  0  0
 26 21  1  0  0  0  0
 27 26  2  0  0  0  0
 28 27  1  0  0  0  0
 29 28  1  0  0  0  0
 30 29  1  0  0  0  0
 28 31  1  6  0  0  0
 21 32  1  6  0  0  0
 18 33  1  6  0  0  0
 14 34  1  6  0  0  0
  8 35  1  6  0  0  0
  2 36  1  6  0  0  0
 17 37  1  6  0  0  0
 20 38  1  1  0  0  0
 16 39  1  1  0  0  0
 10 40  1  1  0  0  0
  3 41  1  1  0  0  0
  6 42  1  0  0  0  0
  6 43  1  1  0  0  0
  1 44  1  0  0  0  0
 44 45  1  0  0  0  0
 45 46  2  0  0  0  0
  1 47  1  6  0  0  0
M  END
> <ID>
CHEBI:70748

> <NAME>
ciguatoxin ABCDE ring fragment

> <DEFINITION>
A polycyclic ether comprising a linear sequence of five trans-fused oxacycles (three oxepines and two pyrans) which corresponds to the ABCDE ring fragment of ciguatoxin CTX1B.

> <STAR>
3

> <IUPAC_NAME>
(2R,3S,5aR,6aS,7aR,8aS,12R,13aR,14R,14aS,15aR,17aS)-12-[(1E,3S)-3,4-dihydroxybut-1-en-1-yl]-2-(prop-2-en-1-yl)-2,3,5a,6a,7,7a,8a,9,12,13a,14,14a,15a,17a-tetradecahydrooxepino[3,2-b]oxepino[2'',3'':5',6']pyrano[2',3':5,6]pyrano[2,3-f]oxepine-3,14-diol

> <FORMULA>
C27H36O9

> <MASS>
504.56930

> <MONOISOTOPIC_MASS>
504.23593

> <CHARGE>
0

> <SMILES>
[H][C@]1(O)C=C[C@@]2([H])O[C@@]3([H])C[C@@]4([H])O[C@@]5([H])CC=C[C@@]([H])(O[C@]5([H])[C@@H](O)[C@]4([H])O[C@]3([H])C=C[C@]2([H])O[C@]1([H])CC=C)\C=C\[C@H](O)CO

> <INCHI>
InChI=1S/C27H36O9/c1-2-4-18-17(30)9-10-19-20(33-18)11-12-21-23(34-19)13-24-27(36-21)25(31)26-22(35-24)6-3-5-16(32-26)8-7-15(29)14-28/h2-3,5,7-12,15-31H,1,4,6,13-14H2/b8-7+/t15-,16+,17-,18+,19+,20-,21+,22-,23-,24+,25+,26-,27+/m0/s1

> <INCHIKEY>
RXQHGRDQAGUJLF-NISFGDLFSA-N

> <PUBMED_CITATION>
22575284

$$$$

Marvin  10241212042D          

 35 38  0  0  0  0            999 V2000
   15.5614   -5.2452    0.0000 O   0  0  0  0  0  0  0  0  0  0  0  0
   14.8546   -4.8370    0.0000 C   0  0  0  0  0  0  0  0  0  0  0  0
   14.1525   -5.2423    0.0000 C   0  0  0  0  0  0  0  0  0  0  0  0
   13.4482   -4.8355    0.0000 C   0  0  0  0  0  0  0  0  0  0  0  0
   12.7449   -5.2416    0.0000 N   0  0  0  0  0  0  0  0  0  0  0  0
   12.0411   -4.8351    0.0000 C   0  0  0  0  0  0  0  0  0  0  0  0
   11.3375   -5.2414    0.0000 C   0  0  0  0  0  0  0  0  0  0  0  0
   12.0411   -4.0036    0.0000 O   0  0  0  0  0  0  0  0  0  0  0  0
   10.6340   -4.8350    0.0000 C   0  0  0  0  0  0  0  0  0  0  0  0
    9.9169   -5.2488    0.0000 C   0  0  0  0  0  0  0  0  0  0  0  0
    9.9168   -6.0766    0.0000 C   0  0  0  0  0  0  0  0  0  0  0  0
   10.6204   -6.4829    0.0000 C   0  0  0  0  0  0  0  0  0  0  0  0
   11.3374   -6.0692    0.0000 C   0  0  0  0  0  0  0  0  0  0  0  0
   14.8545   -4.0037    0.0000 O   0  0  0  0  0  0  0  0  0  0  0  0
    9.1297   -4.9930    0.0000 N   0  0  0  0  0  0  0  0  0  0  0  0
    8.6430   -5.6625    0.0000 C   0  0  0  0  0  0  0  0  0  0  0  0
    9.1295   -6.3324    0.0000 N   0  0  0  0  0  0  0  0  0  0  0  0
    8.8757   -7.1129    0.0000 C   0  0  0  0  0  0  0  0  0  0  0  0
    7.8348   -5.6624    0.0000 C   0  0  0  0  0  0  0  0  0  0  0  0
    7.4222   -6.3768    0.0000 N   0  0  0  0  0  0  0  0  0  0  0  0
    6.5932   -6.3766    0.0000 C   0  0  0  0  0  0  0  0  0  0  0  0
    6.1735   -5.6493    0.0000 C   0  0  0  0  0  0  0  0  0  0  0  0
    5.3456   -5.6492    0.0000 C   0  0  0  0  0  0  0  0  0  0  0  0
    4.9317   -6.3660    0.0000 C   0  0  0  0  0  0  0  0  0  0  0  0
    5.3515   -7.0933    0.0000 C   0  0  0  0  0  0  0  0  0  0  0  0
    6.1793   -7.0934    0.0000 C   0  0  0  0  0  0  0  0  0  0  0  0
    4.1097   -6.3659    0.0000 C   0  0  0  0  0  0  0  0  0  0  0  0
    3.6972   -7.0804    0.0000 N   0  0  0  0  0  0  0  0  0  0  0  0
    3.6945   -5.6466    0.0000 N   0  0  0  0  0  0  0  0  0  0  0  0
   12.7503   -6.0687    0.0000 C   0  0  0  0  0  0  0  0  0  0  0  0
   12.0504   -6.4790    0.0000 N   0  0  0  0  0  0  0  0  0  0  0  0
   12.0559   -7.3032    0.0000 C   0  0  0  0  0  0  0  0  0  0  0  0
   12.7724   -7.7105    0.0000 C   0  0  0  0  0  0  0  0  0  0  0  0
   13.4722   -7.3002    0.0000 C   0  0  0  0  0  0  0  0  0  0  0  0
   13.4668   -6.4760    0.0000 C   0  0  0  0  0  0  0  0  0  0  0  0
  1  2  1  0  0  0  0
  2  3  1  0  0  0  0
  3  4  1  0  0  0  0
  4  5  1  0  0  0  0
  5  6  1  0  0  0  0
  6  7  1  0  0  0  0
  6  8  2  0  0  0  0
  7  9  2  0  0  0  0
  9 10  1  0  0  0  0
 10 11  2  0  0  0  0
 11 12  1  0  0  0  0
 12 13  2  0  0  0  0
  7 13  1  0  0  0  0
  2 14  2  0  0  0  0
 10 15  1  0  0  0  0
 15 16  2  0  0  0  0
 16 17  1  0  0  0  0
 11 17  1  0  0  0  0
 17 18  1  0  0  0  0
 16 19  1  0  0  0  0
 19 20  1  0  0  0  0
 20 21  1  0  0  0  0
 21 22  2  0  0  0  0
 22 23  1  0  0  0  0
 23 24  2  0  0  0  0
 24 25  1  0  0  0  0
 25 26  2  0  0  0  0
 21 26  1  0  0  0  0
 24 27  1  0  0  0  0
 27 28  1  0  0  0  0
 27 29  2  0  0  0  0
  5 30  1  0  0  0  0
 30 31  2  0  0  0  0
 31 32  1  0  0  0  0
 32 33  2  0  0  0  0
 33 34  1  0  0  0  0
 34 35  2  0  0  0  0
 30 35  1  0  0  0  0
M  END
> <ID>
CHEBI:70752

> <NAME>
dabigatran

> <DEFINITION>
An aromatic amide obtained by formal condensation of the carboxy group of 2-{[(4-carbamimidoylphenyl)amino]methyl}-1-methyl-1H-benzimidazole-5-carboxylic acid with the secondary amoino group of N-pyridin-2-yl-β-alanine. The active metabolite of the prodrug  dabigatran etexilate, it acts as an anticoagulant which is used for the prevention of stroke and systemic embolism.

> <STAR>
3

> <INN>
dabigatran

> <FORMULA>
C25H25N7O3

> <MASS>
471.51110

> <MONOISOTOPIC_MASS>
471.20189

> <CHARGE>
0

> <SMILES>
Cn1c(CNc2ccc(cc2)C(N)=N)nc2cc(ccc12)C(=O)N(CCC(O)=O)c1ccccn1

> <INCHI>
InChI=1S/C25H25N7O3/c1-31-20-10-7-17(25(35)32(13-11-23(33)34)21-4-2-3-12-28-21)14-19(20)30-22(31)15-29-18-8-5-16(6-9-18)24(26)27/h2-10,12,14,29H,11,13,15H2,1H3,(H3,26,27)(H,33,34)

> <INCHIKEY>
YBSJFWOBGCMAKL-UHFFFAOYSA-N

> <CAS_REGISTRY_NUMBER>
211914-51-1

> <REAXYS_REGISTRY_NUMBER>
9168207

> <KEGG_DRUG_ACCESSION>
D09707

> <WIKIPEDIA_ACCESSION>
Dabigatran

> <PUBMED_CITATION>
21956605; 22215856; 22227958; 22314599; 22378612; 22411291; 22413715; 22431533; 22458575; 22494098; 22595629; 22612026; 22645678; 22700854; 22722043; 22740145; 22786838; 22834159; 22854367; 23020832; 23476049

$$$$

Marvin  11141216082D          

 40 42  0  0  1  0            999 V2000
    9.3018   -8.3494    0.0000 C   0  0  1  0  0  0  0  0  0  0  0  0
    9.3018   -9.1744    0.0000 C   0  0  1  0  0  0  0  0  0  0  0  0
    8.5873   -7.9369    0.0000 O   0  0  0  0  0  0  0  0  0  0  0  0
    8.5873   -9.5869    0.0000 C   0  0  2  0  0  0  0  0  0  0  0  0
    7.8729   -8.3494    0.0000 C   0  0  1  0  0  0  0  0  0  0  0  0
    7.8729   -9.1744    0.0000 C   0  0  2  0  0  0  0  0  0  0  0  0
   10.0163   -7.9369    0.0000 O   0  0  0  0  0  0  0  0  0  0  0  0
   10.0163   -9.5869    0.0000 O   0  0  0  0  0  0  0  0  0  0  0  0
    8.5873  -10.4119    0.0000 O   0  0  0  0  0  0  0  0  0  0  0  0
    7.1584   -9.5869    0.0000 O   0  0  0  0  0  0  0  0  0  0  0  0
    7.1584   -7.9369    0.0000 C   0  0  0  0  0  0  0  0  0  0  0  0
    6.4439   -8.3494    0.0000 O   0  0  0  0  0  0  0  0  0  0  0  0
   12.1598   -6.6994    0.0000 C   0  0  1  0  0  0  0  0  0  0  0  0
   12.1598   -7.5244    0.0000 C   0  0  1  0  0  0  0  0  0  0  0  0
   11.4452   -6.2869    0.0000 O   0  0  0  0  0  0  0  0  0  0  0  0
   11.4452   -7.9369    0.0000 C   0  0  2  0  0  0  0  0  0  0  0  0
   10.7308   -6.6994    0.0000 C   0  0  1  0  0  0  0  0  0  0  0  0
   10.7308   -7.5244    0.0000 C   0  0  1  0  0  0  0  0  0  0  0  0
   12.8742   -6.2869    0.0000 O   0  0  0  0  0  0  0  0  0  0  0  0
   12.8742   -7.9369    0.0000 N   0  0  0  0  0  0  0  0  0  0  0  0
   11.4452   -8.7619    0.0000 O   0  0  0  0  0  0  0  0  0  0  0  0
   10.0163   -6.2869    0.0000 C   0  0  0  0  0  0  0  0  0  0  0  0
    9.3018   -6.6994    0.0000 O   0  0  0  0  0  0  0  0  0  0  0  0
   12.8742   -8.7619    0.0000 C   0  0  0  0  0  0  0  0  0  0  0  0
   13.5887   -9.1744    0.0000 C   0  0  0  0  0  0  0  0  0  0  0  0
   12.1597   -9.1744    0.0000 O   0  0  0  0  0  0  0  0  0  0  0  0
   13.5887   -4.2244    0.0000 C   0  0  2  0  0  0  0  0  0  0  0  0
   13.5887   -5.0494    0.0000 C   0  0  1  0  0  0  0  0  0  0  0  0
   12.8742   -3.8119    0.0000 O   0  0  0  0  0  0  0  0  0  0  0  0
   12.8742   -5.4619    0.0000 C   0  0  2  0  0  0  0  0  0  0  0  0
   12.1598   -4.2244    0.0000 C   0  0  1  0  0  0  0  0  0  0  0  0
   12.1598   -5.0494    0.0000 C   0  0  2  0  0  0  0  0  0  0  0  0
   14.3032   -3.8119    0.0000 O   0  0  0  0  0  0  0  0  0  0  0  0
   14.3032   -5.4619    0.0000 N   0  0  0  0  0  0  0  0  0  0  0  0
   11.4453   -5.4619    0.0000 O   0  0  0  0  0  0  0  0  0  0  0  0
   11.4453   -3.8119    0.0000 C   0  0  0  0  0  0  0  0  0  0  0  0
   10.7308   -4.2244    0.0000 O   0  0  0  0  0  0  0  0  0  0  0  0
   14.3032   -6.2869    0.0000 C   0  0  0  0  0  0  0  0  0  0  0  0
   15.0177   -6.6994    0.0000 C   0  0  0  0  0  0  0  0  0  0  0  0
   13.5887   -6.6994    0.0000 O   0  0  0  0  0  0  0  0  0  0  0  0
  1  2  1  0  0  0  0
  1  3  1  0  0  0  0
  2  4  1  0  0  0  0
  3  5  1  0  0  0  0
  4  6  1  0  0  0  0
  5  6  1  0  0  0  0
  1  7  1  1  0  0  0
  2  8  1  6  0  0  0
  4  9  1  1  0  0  0
  6 10  1  1  0  0  0
  5 11  1  1  0  0  0
 12 11  1  0  0  0  0
 13 14  1  0  0  0  0
 13 15  1  0  0  0  0
 14 16  1  0  0  0  0
 15 17  1  0  0  0  0
 16 18  1  0  0  0  0
 17 18  1  0  0  0  0
 13 19  1  1  0  0  0
 14 20  1  6  0  0  0
 16 21  1  1  0  0  0
 18  7  1  6  0  0  0
 17 22  1  1  0  0  0
 23 22  1  0  0  0  0
 20 24  1  0  0  0  0
 24 25  1  0  0  0  0
 24 26  2  0  0  0  0
 27 28  1  0  0  0  0
 27 29  1  0  0  0  0
 28 30  1  0  0  0  0
 29 31  1  0  0  0  0
 30 32  1  0  0  0  0
 31 32  1  0  0  0  0
 27 33  1  6  0  0  0
 28 34  1  6  0  0  0
 30 19  1  1  0  0  0
 32 35  1  1  0  0  0
 31 36  1  1  0  0  0
 37 36  1  0  0  0  0
 34 38  1  0  0  0  0
 38 39  1  0  0  0  0
 38 40  2  0  0  0  0
M  END
> <ID>
CHEBI:71054

> <NAME>
beta-D-Galp-(1->4)-beta-D-GlcpNAc-(1->3)-alpha-D-GalpNAc

> <DEFINITION>
β-D-Galp-(1→4)-β-D-GlcpNAc-(1→3)-D-GalpNAc with α-configuration at the anomeric centre of the reducing-end GalNAc residue.

> <STAR>
3

> <SYNONYM>
Galbeta1-4GlcNAcalpha1-3GalNAcbeta; Galb1-4GlcNAcb1-3GalNAca; beta-D-galactosyl-(1->4)-N-acetyl-beta-D-glucosaminyl-(1->3)-N-acetyl-alpha-D-galactosamine; beta-D-Gal-(1->4)-beta-D-GlcNAc-(1->3)-alpha-D-GalNAc

> <IUPAC_NAME>
beta-D-galactopyranosyl-(1->4)-2-acetamido-2-deoxy-beta-D-glucopyranosyl-(1->3)-2-acetamido-2-deoxy-alpha-D-galactopyranose

> <FORMULA>
C22H38N2O16

> <MASS>
586.54090

> <MONOISOTOPIC_MASS>
586.22213

> <CHARGE>
0

> <SMILES>
CC(=O)N[C@H]1[C@@H](O)O[C@H](CO)[C@H](O)[C@@H]1O[C@@H]1O[C@H](CO)[C@@H](O[C@@H]2O[C@H](CO)[C@H](O)[C@H](O)[C@H]2O)[C@H](O)[C@H]1NC(C)=O

> <INCHI>
InChI=1S/C22H38N2O16/c1-6(28)23-11-15(32)18(39-22-17(34)16(33)13(30)8(3-25)37-22)10(5-27)38-21(11)40-19-12(24-7(2)29)20(35)36-9(4-26)14(19)31/h8-22,25-27,30-35H,3-5H2,1-2H3,(H,23,28)(H,24,29)/t8-,9-,10-,11-,12-,13+,14+,15-,16+,17-,18-,19-,20+,21+,22+/m1/s1

> <INCHIKEY>
OLSBYXSYTYMPRD-CLCYAJKZSA-N

> <PUBMED_CITATION>
19443021; 25568069; 31537530

$$$$

Marvin  11281216462D          

 40 42  0  0  1  0            999 V2000
    8.7453  -10.6157    0.0000 C   0  0  2  0  0  0  0  0  0  0  0  0
    8.7453  -11.4407    0.0000 C   0  0  1  0  0  0  0  0  0  0  0  0
    8.0308  -10.2032    0.0000 O   0  0  0  0  0  0  0  0  0  0  0  0
    8.0308  -11.8532    0.0000 C   0  0  2  0  0  0  0  0  0  0  0  0
    7.3163  -10.6157    0.0000 C   0  0  1  0  0  0  0  0  0  0  0  0
    7.3163  -11.4407    0.0000 C   0  0  1  0  0  0  0  0  0  0  0  0
    9.4598  -10.2032    0.0000 O   0  0  0  0  0  0  0  0  0  0  0  0
    9.4598  -11.8533    0.0000 N   0  0  0  0  0  0  0  0  0  0  0  0
    8.0307  -12.6783    0.0000 O   0  0  0  0  0  0  0  0  0  0  0  0
    6.6019  -11.8532    0.0000 O   0  0  0  0  0  0  0  0  0  0  0  0
    6.6019  -10.2033    0.0000 C   0  0  0  0  0  0  0  0  0  0  0  0
    5.8874  -10.6158    0.0000 O   0  0  0  0  0  0  0  0  0  0  0  0
    9.4597  -12.6783    0.0000 C   0  0  0  0  0  0  0  0  0  0  0  0
   10.1742  -13.0908    0.0000 C   0  0  0  0  0  0  0  0  0  0  0  0
    8.7453  -13.0908    0.0000 O   0  0  0  0  0  0  0  0  0  0  0  0
   10.1743   -8.1407    0.0000 C   0  0  1  0  0  0  0  0  0  0  0  0
   10.1743   -8.9657    0.0000 C   0  0  1  0  0  0  0  0  0  0  0  0
    9.4598   -7.7282    0.0000 O   0  0  0  0  0  0  0  0  0  0  0  0
    9.4598   -9.3782    0.0000 C   0  0  2  0  0  0  0  0  0  0  0  0
    8.7453   -8.1407    0.0000 C   0  0  1  0  0  0  0  0  0  0  0  0
    8.7453   -8.9657    0.0000 C   0  0  2  0  0  0  0  0  0  0  0  0
   10.8888   -7.7282    0.0000 O   0  0  0  0  0  0  0  0  0  0  0  0
   10.8888   -9.3782    0.0000 O   0  0  0  0  0  0  0  0  0  0  0  0
    8.0309   -9.3782    0.0000 O   0  0  0  0  0  0  0  0  0  0  0  0
    8.0309   -7.7282    0.0000 C   0  0  0  0  0  0  0  0  0  0  0  0
    7.3164   -8.1407    0.0000 O   0  0  0  0  0  0  0  0  0  0  0  0
   13.0323   -6.4907    0.0000 C   0  0  1  0  0  0  0  0  0  0  0  0
   13.0323   -7.3157    0.0000 C   0  0  1  0  0  0  0  0  0  0  0  0
   12.3177   -6.0782    0.0000 O   0  0  0  0  0  0  0  0  0  0  0  0
   12.3177   -7.7282    0.0000 C   0  0  2  0  0  0  0  0  0  0  0  0
   11.6033   -6.4907    0.0000 C   0  0  1  0  0  0  0  0  0  0  0  0
   11.6033   -7.3157    0.0000 C   0  0  1  0  0  0  0  0  0  0  0  0
   13.7467   -6.0782    0.0000 O   0  0  0  0  0  0  0  0  0  0  0  0
   13.7467   -7.7282    0.0000 N   0  0  0  0  0  0  0  0  0  0  0  0
   12.3177   -8.5532    0.0000 O   0  0  0  0  0  0  0  0  0  0  0  0
   10.8888   -6.0782    0.0000 C   0  0  0  0  0  0  0  0  0  0  0  0
   10.1743   -6.4907    0.0000 O   0  0  0  0  0  0  0  0  0  0  0  0
   13.7467   -8.5532    0.0000 C   0  0  0  0  0  0  0  0  0  0  0  0
   14.4611   -8.9658    0.0000 C   0  0  0  0  0  0  0  0  0  0  0  0
   13.0322   -8.9657    0.0000 O   0  0  0  0  0  0  0  0  0  0  0  0
  1  2  1  0  0  0  0
  1  3  1  0  0  0  0
  2  4  1  0  0  0  0
  3  5  1  0  0  0  0
  4  6  1  0  0  0  0
  5  6  1  0  0  0  0
  1  7  1  6  0  0  0
  2  8  1  6  0  0  0
  4  9  1  1  0  0  0
  6 10  1  6  0  0  0
  5 11  1  1  0  0  0
 12 11  1  0  0  0  0
  8 13  1  0  0  0  0
 13 14  1  0  0  0  0
 13 15  2  0  0  0  0
 16 17  1  0  0  0  0
 16 18  1  0  0  0  0
 17 19  1  0  0  0  0
 18 20  1  0  0  0  0
 19 21  1  0  0  0  0
 20 21  1  0  0  0  0
 16 22  1  1  0  0  0
 17 23  1  6  0  0  0
 19  7  1  1  0  0  0
 21 24  1  1  0  0  0
 20 25  1  1  0  0  0
 26 25  1  0  0  0  0
 27 28  1  0  0  0  0
 27 29  1  0  0  0  0
 28 30  1  0  0  0  0
 29 31  1  0  0  0  0
 30 32  1  0  0  0  0
 31 32  1  0  0  0  0
 27 33  1  1  0  0  0
 28 34  1  6  0  0  0
 30 35  1  1  0  0  0
 32 22  1  6  0  0  0
 31 36  1  1  0  0  0
 37 36  1  0  0  0  0
 34 38  1  0  0  0  0
 38 39  1  0  0  0  0
 38 40  2  0  0  0  0
M  END
> <ID>
CHEBI:71269

> <NAME>
alpha-D-GlcpNAc-(1->3)-beta-D-Galp-(1->4)-beta-D-GlcpNAc

> <DEFINITION>
A linear amino trisaccharide comprising N-acetyl-α-D-glucosamine, β-D-galactose and N-acetyl-β-D-glucosamine residues linked sequentially (1→3) and (1→4).

> <STAR>
3

> <SYNONYM>
N-acetyl-alpha-D-glucosaminyl-(1->3)-beta-D-galactosyl-(1->4)-N-acetyl-beta-D-glucosamine; GlcNAcalpha1-3Galbeta1-4GlcNAcbeta; GlcNAca1-3Galb1-4GlcNAcb; alpha-D-GlcNAc-(1->3)-beta-D-Gal-(1->4)-beta-D-GlcNAc

> <IUPAC_NAME>
2-acetamido-2-deoxy-alpha-D-glucopyranosyl-(1->3)-beta-D-galactopyranosyl-(1->4)-2-acetamido-2-deoxy-beta-D-glucopyranose

> <FORMULA>
C22H38N2O16

> <MASS>
586.54090

> <MONOISOTOPIC_MASS>
586.22213

> <CHARGE>
0

> <SMILES>
CC(=O)N[C@H]1[C@H](O)O[C@H](CO)[C@@H](O[C@@H]2O[C@H](CO)[C@H](O)[C@H](O[C@H]3O[C@H](CO)[C@@H](O)[C@H](O)[C@H]3NC(C)=O)[C@H]2O)[C@@H]1O

> <INCHI>
InChI=1S/C22H38N2O16/c1-6(28)23-11-16(33)18(10(5-27)36-20(11)35)39-22-17(34)19(14(31)9(4-26)38-22)40-21-12(24-7(2)29)15(32)13(30)8(3-25)37-21/h8-22,25-27,30-35H,3-5H2,1-2H3,(H,23,28)(H,24,29)/t8-,9-,10-,11-,12-,13-,14+,15-,16-,17-,18-,19+,20-,21-,22+/m1/s1

> <INCHIKEY>
LJYGCZXFBOCZHA-NZDIRZDWSA-N

> <PUBMED_CITATION>
19443021; 25568069; 31537530

$$$$

Marvin  11291211352D          

 40 42  0  0  1  0            999 V2000
    9.5003  -20.4738    0.0000 C   0  0  2  0  0  0  0  0  0  0  0  0
    9.5003  -21.2988    0.0000 C   0  0  1  0  0  0  0  0  0  0  0  0
    8.7860  -20.0613    0.0000 O   0  0  0  0  0  0  0  0  0  0  0  0
    8.7860  -21.7113    0.0000 C   0  0  2  0  0  0  0  0  0  0  0  0
    8.0714  -20.4738    0.0000 C   0  0  1  0  0  0  0  0  0  0  0  0
    8.0714  -21.2988    0.0000 C   0  0  1  0  0  0  0  0  0  0  0  0
   10.2148  -20.0613    0.0000 O   0  0  0  0  0  0  0  0  0  0  0  0
   10.2148  -21.7113    0.0000 N   0  0  0  0  0  0  0  0  0  0  0  0
    8.7858  -22.5362    0.0000 O   0  0  0  0  0  0  0  0  0  0  0  0
    7.3570  -21.7113    0.0000 O   0  0  0  0  0  0  0  0  0  0  0  0
    7.3570  -20.0613    0.0000 C   0  0  0  0  0  0  0  0  0  0  0  0
    6.6425  -20.4738    0.0000 O   0  0  0  0  0  0  0  0  0  0  0  0
   10.2148  -22.5362    0.0000 C   0  0  0  0  0  0  0  0  0  0  0  0
   10.9293  -22.9487    0.0000 C   0  0  0  0  0  0  0  0  0  0  0  0
    9.5003  -22.9487    0.0000 O   0  0  0  0  0  0  0  0  0  0  0  0
   12.3582  -18.8238    0.0000 C   0  0  1  0  0  0  0  0  0  0  0  0
   12.3582  -19.6488    0.0000 C   0  0  1  0  0  0  0  0  0  0  0  0
   11.6438  -18.4113    0.0000 O   0  0  0  0  0  0  0  0  0  0  0  0
   11.6438  -20.0613    0.0000 C   0  0  2  0  0  0  0  0  0  0  0  0
   10.9293  -18.8238    0.0000 C   0  0  1  0  0  0  0  0  0  0  0  0
   10.9293  -19.6488    0.0000 C   0  0  2  0  0  0  0  0  0  0  0  0
   13.0727  -18.4113    0.0000 O   0  0  0  0  0  0  0  0  0  0  0  0
   13.0727  -20.0613    0.0000 O   0  0  0  0  0  0  0  0  0  0  0  0
   11.6438  -20.8863    0.0000 O   0  0  0  0  0  0  0  0  0  0  0  0
   10.2148  -18.4113    0.0000 C   0  0  0  0  0  0  0  0  0  0  0  0
    9.5003  -18.8238    0.0000 O   0  0  0  0  0  0  0  0  0  0  0  0
   14.5016  -19.2363    0.0000 O   0  0  0  0  0  0  0  0  0  0  0  0
   15.2161  -17.1739    0.0000 C   0  0  1  0  0  0  0  0  0  0  0  0
   15.2161  -17.9989    0.0000 C   0  0  1  0  0  0  0  0  0  0  0  0
   14.5016  -16.7614    0.0000 O   0  0  0  0  0  0  0  0  0  0  0  0
   14.5016  -18.4113    0.0000 C   0  0  2  0  0  0  0  0  0  0  0  0
   13.7871  -17.1739    0.0000 C   0  0  1  0  0  0  0  0  0  0  0  0
   13.7871  -17.9989    0.0000 C   0  0  1  0  0  0  0  0  0  0  0  0
   15.9306  -16.7614    0.0000 O   0  0  0  0  0  0  0  0  0  0  0  0
   15.9306  -18.4113    0.0000 N   0  0  0  0  0  0  0  0  0  0  0  0
   13.0727  -16.7614    0.0000 C   0  0  0  0  0  0  0  0  0  0  0  0
   12.3582  -17.1739    0.0000 O   0  0  0  0  0  0  0  0  0  0  0  0
   15.9306  -19.2363    0.0000 C   0  0  0  0  0  0  0  0  0  0  0  0
   16.6450  -19.6488    0.0000 C   0  0  0  0  0  0  0  0  0  0  0  0
   15.2161  -19.6488    0.0000 O   0  0  0  0  0  0  0  0  0  0  0  0
  1  2  1  0  0  0  0
  1  3  1  0  0  0  0
  2  4  1  0  0  0  0
  3  5  1  0  0  0  0
  4  6  1  0  0  0  0
  5  6  1  0  0  0  0
  1  7  1  6  0  0  0
  2  8  1  6  0  0  0
  4  9  1  1  0  0  0
  6 10  1  6  0  0  0
  5 11  1  1  0  0  0
 12 11  1  0  0  0  0
  8 13  1  0  0  0  0
 13 14  1  0  0  0  0
 13 15  2  0  0  0  0
 16 17  1  0  0  0  0
 16 18  1  0  0  0  0
 17 19  1  0  0  0  0
 18 20  1  0  0  0  0
 19 21  1  0  0  0  0
 20 21  1  0  0  0  0
 16 22  1  1  0  0  0
 17 23  1  6  0  0  0
 19 24  1  1  0  0  0
 21  7  1  1  0  0  0
 20 25  1  1  0  0  0
 26 25  1  0  0  0  0
 28 29  1  0  0  0  0
 28 30  1  0  0  0  0
 29 31  1  0  0  0  0
 30 32  1  0  0  0  0
 31 33  1  0  0  0  0
 32 33  1  0  0  0  0
 28 34  1  1  0  0  0
 29 35  1  6  0  0  0
 31 27  1  1  0  0  0
 33 22  1  6  0  0  0
 32 36  1  1  0  0  0
 37 36  1  0  0  0  0
 35 38  1  0  0  0  0
 38 39  1  0  0  0  0
 38 40  2  0  0  0  0
M  END
> <ID>
CHEBI:71276

> <NAME>
alpha-D-GlcpNAc-(1->4)-beta-D-Galp-(1->4)-beta-D-GlcpNAc

> <DEFINITION>
An amino trisaccharide consisting of N-acetyl-α-D-glucosamine, β-D-galactose and N-acetyl-D-glucosamine residues all linked sequentially (1→4).

> <STAR>
3

> <SYNONYM>
N-acetyl-alpha-D-glucosaminyl-(1->4)-beta-D-galactosyl-(1->3)-N-acetyl-alpha-D-glucosamine; GlcNAcalpha1-4Galbeta1-4GlcNAcbeta; GlcNAca1-4Galb1-4GlcNAcb; alpha-D-GlcNAc-(1->4)-beta-D-Gal-(1->4)-beta-D-GlcNAc

> <IUPAC_NAME>
2-acetamido-2-deoxy-alpha-D-glucopyranosyl-(1->4)-beta-D-galactopyranosyl-(1->4)-2-acetamido-2-deoxy-beta-D-glucopyranose

> <FORMULA>
C22H38N2O16

> <MASS>
586.54090

> <MONOISOTOPIC_MASS>
586.22213

> <CHARGE>
0

> <SMILES>
CC(=O)N[C@H]1[C@H](O)O[C@H](CO)[C@@H](O[C@@H]2O[C@H](CO)[C@H](O[C@H]3O[C@H](CO)[C@@H](O)[C@H](O)[C@H]3NC(C)=O)[C@H](O)[C@H]2O)[C@@H]1O

> <INCHI>
InChI=1S/C22H38N2O16/c1-6(28)23-11-15(32)18(9(4-26)36-20(11)35)40-22-17(34)16(33)19(10(5-27)38-22)39-21-12(24-7(2)29)14(31)13(30)8(3-25)37-21/h8-22,25-27,30-35H,3-5H2,1-2H3,(H,23,28)(H,24,29)/t8-,9-,10-,11-,12-,13-,14-,15-,16-,17-,18-,19+,20-,21-,22+/m1/s1

> <INCHIKEY>
QKUOCJMMCKELLD-XMLPSIQJSA-N

> <PUBMED_CITATION>
19443021

$$$$

Marvin  12031214452D          

 40 42  0  0  1  0            999 V2000
   12.7989   -6.1825    0.0000 C   0  0  1  0  0  0  0  0  0  0  0  0
   12.7989   -7.0075    0.0000 C   0  0  1  0  0  0  0  0  0  0  0  0
   12.0843   -5.7700    0.0000 O   0  0  0  0  0  0  0  0  0  0  0  0
   12.0843   -7.4200    0.0000 C   0  0  2  0  0  0  0  0  0  0  0  0
   11.3699   -6.1825    0.0000 C   0  0  1  0  0  0  0  0  0  0  0  0
   11.3699   -7.0075    0.0000 C   0  0  2  0  0  0  0  0  0  0  0  0
   13.5133   -5.7700    0.0000 O   0  0  0  0  0  0  0  0  0  0  0  0
   13.5133   -7.4200    0.0000 O   0  0  0  0  0  0  0  0  0  0  0  0
   12.0843   -8.2450    0.0000 O   0  0  0  0  0  0  0  0  0  0  0  0
   10.6554   -7.4200    0.0000 O   0  0  0  0  0  0  0  0  0  0  0  0
   10.6554   -5.7700    0.0000 C   0  0  0  0  0  0  0  0  0  0  0  0
    9.9409   -6.1825    0.0000 O   0  0  0  0  0  0  0  0  0  0  0  0
    9.2265   -5.7700    0.0000 C   0  0  2  0  0  0  0  0  0  0  0  0
    8.5120   -6.1825    0.0000 C   0  0  1  0  0  0  0  0  0  0  0  0
    9.2265   -4.9450    0.0000 O   0  0  0  0  0  0  0  0  0  0  0  0
    7.7976   -5.7700    0.0000 C   0  0  2  0  0  0  0  0  0  0  0  0
    8.5121   -4.5325    0.0000 C   0  0  1  0  0  0  0  0  0  0  0  0
    7.7976   -4.9450    0.0000 C   0  0  1  0  0  0  0  0  0  0  0  0
    8.5120   -7.0075    0.0000 N   0  0  0  0  0  0  0  0  0  0  0  0
    7.0830   -6.1824    0.0000 O   0  0  0  0  0  0  0  0  0  0  0  0
    7.0831   -4.5324    0.0000 O   0  0  0  0  0  0  0  0  0  0  0  0
    8.5121   -3.7075    0.0000 C   0  0  0  0  0  0  0  0  0  0  0  0
    7.7976   -3.2950    0.0000 O   0  0  0  0  0  0  0  0  0  0  0  0
    7.7975   -7.4200    0.0000 C   0  0  0  0  0  0  0  0  0  0  0  0
    7.7974   -8.2450    0.0000 C   0  0  0  0  0  0  0  0  0  0  0  0
    7.0830   -7.0074    0.0000 O   0  0  0  0  0  0  0  0  0  0  0  0
   15.6568   -4.5325    0.0000 C   0  0  1  0  0  0  0  0  0  0  0  0
   15.6568   -5.3575    0.0000 C   0  0  1  0  0  0  0  0  0  0  0  0
   14.9422   -4.1200    0.0000 O   0  0  0  0  0  0  0  0  0  0  0  0
   14.9422   -5.7700    0.0000 C   0  0  2  0  0  0  0  0  0  0  0  0
   14.2278   -4.5325    0.0000 C   0  0  1  0  0  0  0  0  0  0  0  0
   14.2278   -5.3575    0.0000 C   0  0  1  0  0  0  0  0  0  0  0  0
   16.3712   -4.1200    0.0000 O   0  0  0  0  0  0  0  0  0  0  0  0
   16.3712   -5.7700    0.0000 N   0  0  0  0  0  0  0  0  0  0  0  0
   14.9422   -6.5950    0.0000 O   0  0  0  0  0  0  0  0  0  0  0  0
   13.5133   -4.1200    0.0000 C   0  0  0  0  0  0  0  0  0  0  0  0
   12.7989   -4.5325    0.0000 O   0  0  0  0  0  0  0  0  0  0  0  0
   16.3712   -6.5950    0.0000 C   0  0  0  0  0  0  0  0  0  0  0  0
   17.0857   -7.0075    0.0000 C   0  0  0  0  0  0  0  0  0  0  0  0
   15.6568   -7.0075    0.0000 O   0  0  0  0  0  0  0  0  0  0  0  0
  1  2  1  0  0  0  0
  1  3  1  0  0  0  0
  2  4  1  0  0  0  0
  3  5  1  0  0  0  0
  4  6  1  0  0  0  0
  5  6  1  0  0  0  0
  1  7  1  1  0  0  0
  2  8  1  6  0  0  0
  4  9  1  1  0  0  0
  6 10  1  1  0  0  0
  5 11  1  1  0  0  0
 11 12  1  0  0  0  0
 13 14  1  0  0  0  0
 13 15  1  0  0  0  0
 14 16  1  0  0  0  0
 15 17  1  0  0  0  0
 16 18  1  0  0  0  0
 17 18  1  0  0  0  0
 13 12  1  6  0  0  0
 14 19  1  6  0  0  0
 16 20  1  1  0  0  0
 18 21  1  6  0  0  0
 17 22  1  1  0  0  0
 23 22  1  0  0  0  0
 19 24  1  0  0  0  0
 24 25  1  0  0  0  0
 24 26  2  0  0  0  0
 27 28  1  0  0  0  0
 27 29  1  0  0  0  0
 28 30  1  0  0  0  0
 29 31  1  0  0  0  0
 30 32  1  0  0  0  0
 31 32  1  0  0  0  0
 27 33  1  1  0  0  0
 28 34  1  6  0  0  0
 30 35  1  1  0  0  0
 32  7  1  6  0  0  0
 31 36  1  1  0  0  0
 37 36  1  0  0  0  0
 34 38  1  0  0  0  0
 38 39  1  0  0  0  0
 38 40  2  0  0  0  0
M  END
> <ID>
CHEBI:71323

> <NAME>
alpha-D-GlcpNAc-(1->6)-beta-D-Galp-(1->4)-beta-D-GlcpNAc

> <DEFINITION>
An amino trisaccharide consisting of N-acetyl-α-D-glucosamine, β-D-galactose and N-acetyl-β-D-glucosamine residues linked sequentially (1→6) and (1→4).

> <STAR>
3

> <SYNONYM>
N-acetyl-alpha-D-glucosaminyl-(1->6)-beta-D-galactosyl-(1->4)-N-acetyl-alpha-D-glucosamine; GlcNAcalpha1-6Galbeta1-4GlcNAcbeta; GlcNAca1-6Galb1-4GlcNAcb; alpha-D-GlcNAc-(1->6)-beta-D-Gal-(1->4)-beta-D-GlcNAc

> <IUPAC_NAME>
2-acetamido-2-deoxy-alpha-D-glucopyranosyl-(1->6)-beta-D-galactopyranosyl-(1->4)-2-acetamido-2-deoxy-beta-D-glucopyranose

> <FORMULA>
C22H38N2O16

> <MASS>
586.54090

> <MONOISOTOPIC_MASS>
586.22213

> <CHARGE>
0

> <SMILES>
CC(=O)N[C@H]1[C@H](O)O[C@H](CO)[C@@H](O[C@@H]2O[C@H](CO[C@H]3O[C@H](CO)[C@@H](O)[C@H](O)[C@H]3NC(C)=O)[C@H](O)[C@H](O)[C@H]2O)[C@@H]1O

> <INCHI>
InChI=1S/C22H38N2O16/c1-6(27)23-11-16(32)19(9(4-26)37-20(11)35)40-22-18(34)17(33)14(30)10(39-22)5-36-21-12(24-7(2)28)15(31)13(29)8(3-25)38-21/h8-22,25-26,29-35H,3-5H2,1-2H3,(H,23,27)(H,24,28)/t8-,9-,10-,11-,12-,13-,14+,15-,16-,17+,18-,19-,20-,21+,22+/m1/s1

> <INCHIKEY>
ILSGXQJDFRRBKD-BFOOFDDQSA-N

> <PUBMED_CITATION>
19443021; 25568069; 31537530

$$$$

Marvin  12031214562D          

 40 42  0  0  1  0            999 V2000
   13.3257  -16.8082    0.0000 C   0  0  1  0  0  0  0  0  0  0  0  0
   13.3257  -17.6332    0.0000 C   0  0  1  0  0  0  0  0  0  0  0  0
   12.6111  -16.3957    0.0000 O   0  0  0  0  0  0  0  0  0  0  0  0
   12.6111  -18.0457    0.0000 C   0  0  2  0  0  0  0  0  0  0  0  0
   11.8967  -16.8082    0.0000 C   0  0  1  0  0  0  0  0  0  0  0  0
   11.8967  -17.6332    0.0000 C   0  0  2  0  0  0  0  0  0  0  0  0
   14.0401  -16.3956    0.0000 O   0  0  0  0  0  0  0  0  0  0  0  0
   14.0401  -18.0457    0.0000 O   0  0  0  0  0  0  0  0  0  0  0  0
   12.6111  -18.8707    0.0000 O   0  0  0  0  0  0  0  0  0  0  0  0
   11.1822  -18.0457    0.0000 O   0  0  0  0  0  0  0  0  0  0  0  0
   11.1822  -16.3957    0.0000 C   0  0  0  0  0  0  0  0  0  0  0  0
   10.4678  -16.8082    0.0000 O   0  0  0  0  0  0  0  0  0  0  0  0
   14.0401  -18.8707    0.0000 C   0  0  1  0  0  0  0  0  0  0  0  0
   14.7546  -19.2832    0.0000 C   0  0  1  0  0  0  0  0  0  0  0  0
   13.3256  -19.2832    0.0000 O   0  0  0  0  0  0  0  0  0  0  0  0
   14.7545  -20.1082    0.0000 C   0  0  2  0  0  0  0  0  0  0  0  0
   13.3256  -20.1082    0.0000 C   0  0  1  0  0  0  0  0  0  0  0  0
   14.0401  -20.5207    0.0000 C   0  0  1  0  0  0  0  0  0  0  0  0
   15.4691  -18.8707    0.0000 N   0  0  0  0  0  0  0  0  0  0  0  0
   15.4690  -20.5207    0.0000 O   0  0  0  0  0  0  0  0  0  0  0  0
   14.0401  -21.3457    0.0000 O   0  0  0  0  0  0  0  0  0  0  0  0
   12.6111  -20.5207    0.0000 C   0  0  0  0  0  0  0  0  0  0  0  0
   12.6111  -21.3457    0.0000 O   0  0  0  0  0  0  0  0  0  0  0  0
   16.1835  -19.2832    0.0000 C   0  0  0  0  0  0  0  0  0  0  0  0
   16.8980  -18.8707    0.0000 C   0  0  0  0  0  0  0  0  0  0  0  0
   16.1835  -20.1082    0.0000 O   0  0  0  0  0  0  0  0  0  0  0  0
   12.6112  -15.5706    0.0000 O   0  0  0  0  0  0  0  0  0  0  0  0
   14.7547  -14.3331    0.0000 C   0  0  2  0  0  0  0  0  0  0  0  0
   14.7547  -15.1581    0.0000 C   0  0  1  0  0  0  0  0  0  0  0  0
   14.0401  -13.9206    0.0000 O   0  0  0  0  0  0  0  0  0  0  0  0
   14.0401  -15.5706    0.0000 C   0  0  2  0  0  0  0  0  0  0  0  0
   13.3257  -14.3331    0.0000 C   0  0  1  0  0  0  0  0  0  0  0  0
   13.3257  -15.1581    0.0000 C   0  0  2  0  0  0  0  0  0  0  0  0
   15.4691  -13.9206    0.0000 O   0  0  0  0  0  0  0  0  0  0  0  0
   15.4691  -15.5707    0.0000 N   0  0  0  0  0  0  0  0  0  0  0  0
   12.6112  -13.9207    0.0000 C   0  0  0  0  0  0  0  0  0  0  0  0
   11.8967  -14.3332    0.0000 O   0  0  0  0  0  0  0  0  0  0  0  0
   16.1836  -15.1582    0.0000 C   0  0  0  0  0  0  0  0  0  0  0  0
   16.8980  -15.5707    0.0000 C   0  0  0  0  0  0  0  0  0  0  0  0
   16.1836  -14.3332    0.0000 O   0  0  0  0  0  0  0  0  0  0  0  0
  1  2  1  0  0  0  0
  1  3  1  0  0  0  0
  2  4  1  0  0  0  0
  3  5  1  0  0  0  0
  4  6  1  0  0  0  0
  5  6  1  0  0  0  0
  1  7  1  1  0  0  0
  2  8  1  6  0  0  0
  4  9  1  1  0  0  0
  6 10  1  1  0  0  0
  5 11  1  1  0  0  0
 11 12  1  0  0  0  0
 13 14  1  0  0  0  0
 13 15  1  0  0  0  0
 14 16  1  0  0  0  0
 15 17  1  0  0  0  0
 16 18  1  0  0  0  0
 17 18  1  0  0  0  0
 13  8  1  1  0  0  0
 14 19  1  6  0  0  0
 16 20  1  1  0  0  0
 18 21  1  6  0  0  0
 17 22  1  1  0  0  0
 23 22  1  0  0  0  0
 19 24  1  0  0  0  0
 24 25  1  0  0  0  0
 24 26  2  0  0  0  0
 28 29  1  0  0  0  0
 28 30  1  0  0  0  0
 29 31  1  0  0  0  0
 30 32  1  0  0  0  0
 31 33  1  0  0  0  0
 32 33  1  0  0  0  0
 28 34  1  6  0  0  0
 29 35  1  6  0  0  0
 31  7  1  1  0  0  0
 33 27  1  1  0  0  0
 32 36  1  1  0  0  0
 37 36  1  0  0  0  0
 35 38  1  0  0  0  0
 38 39  1  0  0  0  0
 38 40  2  0  0  0  0
M  END
> <ID>
CHEBI:71324

> <NAME>
beta-D-GlcpNAc-(1->2)-beta-D-Galp-(1->3)-alpha-D-GalpNAc

> <DEFINITION>
An amino trisaccharide consisting of N-acetyl-β-D-glucosamine, β-D-galactose and N-acetyl-D-galactosamine residues linked sequentially (1→2) and (1→3).

> <STAR>
3

> <SYNONYM>
N-acetyl-beta-D-glucosaminyl-(1->2)-beta-D-galactosyl-(1->3)-N-acetyl-alpha-D-glucosamine; GlcNAcbeta1-2Galbeta1-3GalNAcalpha; GlcNAcb1-2Galb1-3GalNAca; beta-D-GlcNAc-(1->2)-beta-D-Gal-(1->3)-alpha-D-GalNAc

> <IUPAC_NAME>
2-acetamido-2-deoxy-beta-D-glucopyranosyl-(1->2)-beta-D-galactopyranosyl-(1->3)-2-acetamido-2-deoxy-alpha-D-galactopyranose

> <FORMULA>
C22H38N2O16

> <MASS>
586.54090

> <MONOISOTOPIC_MASS>
586.22213

> <CHARGE>
0

> <SMILES>
CC(=O)N[C@@H]1[C@@H](O)[C@H](O)[C@@H](CO)O[C@H]1O[C@@H]1[C@@H](O)[C@@H](O)[C@@H](CO)O[C@H]1O[C@H]1[C@@H](O)[C@@H](CO)O[C@H](O)[C@@H]1NC(C)=O

> <INCHI>
InChI=1S/C22H38N2O16/c1-6(28)23-11-16(33)13(30)8(3-25)37-21(11)40-19-17(34)14(31)9(4-26)38-22(19)39-18-12(24-7(2)29)20(35)36-10(5-27)15(18)32/h8-22,25-27,30-35H,3-5H2,1-2H3,(H,23,28)(H,24,29)/t8-,9-,10-,11-,12-,13-,14+,15+,16-,17+,18-,19-,20+,21+,22+/m1/s1

> <INCHIKEY>
CXXILOOXXYUWGK-KUZSTMJLSA-N

> <PUBMED_CITATION>
19443021; 25568069; 31537530

$$$$

Marvin  12041217062D          

 29 30  0  0  1  0            999 V2000
    7.6998  -21.1818    0.0000 C   0  0  1  0  0  0  0  0  0  0  0  0
    7.6998  -22.0068    0.0000 C   0  0  1  0  0  0  0  0  0  0  0  0
    6.9853  -20.7693    0.0000 O   0  0  0  0  0  0  0  0  0  0  0  0
    6.9853  -22.4193    0.0000 C   0  0  2  0  0  0  0  0  0  0  0  0
    6.2708  -21.1818    0.0000 C   0  0  1  0  0  0  0  0  0  0  0  0
    6.2708  -22.0068    0.0000 C   0  0  1  0  0  0  0  0  0  0  0  0
    8.4143  -20.7692    0.0000 O   0  0  0  0  0  0  0  0  0  0  0  0
    8.4143  -22.4193    0.0000 N   0  0  0  0  0  0  0  0  0  0  0  0
    6.9852  -23.2443    0.0000 O   0  0  0  0  0  0  0  0  0  0  0  0
    5.5564  -22.4193    0.0000 O   0  0  0  0  0  0  0  0  0  0  0  0
    5.5564  -20.7693    0.0000 C   0  0  0  0  0  0  0  0  0  0  0  0
    4.8419  -21.1818    0.0000 O   0  0  0  0  0  0  0  0  0  0  0  0
    8.4142  -23.2443    0.0000 C   0  0  0  0  0  0  0  0  0  0  0  0
    9.1287  -23.6568    0.0000 C   0  0  0  0  0  0  0  0  0  0  0  0
    7.6998  -23.6568    0.0000 O   0  0  0  0  0  0  0  0  0  0  0  0
    9.1288  -18.7067    0.0000 C   0  0  2  0  0  0  0  0  0  0  0  0
    9.1288  -19.5317    0.0000 C   0  0  1  0  0  0  0  0  0  0  0  0
    8.4143  -18.2942    0.0000 O   0  0  0  0  0  0  0  0  0  0  0  0
    8.4143  -19.9442    0.0000 C   0  0  2  0  0  0  0  0  0  0  0  0
    7.6998  -18.7067    0.0000 C   0  0  1  0  0  0  0  0  0  0  0  0
    7.6998  -19.5317    0.0000 C   0  0  2  0  0  0  0  0  0  0  0  0
    9.8433  -18.2942    0.0000 O   0  0  0  0  0  0  0  0  0  0  0  0
    9.8433  -19.9442    0.0000 N   0  0  0  0  0  0  0  0  0  0  0  0
    6.9854  -19.9442    0.0000 O   0  0  0  0  0  0  0  0  0  0  0  0
    6.9854  -18.2942    0.0000 C   0  0  0  0  0  0  0  0  0  0  0  0
    9.8433  -20.7693    0.0000 C   0  0  0  0  0  0  0  0  0  0  0  0
   10.5578  -21.1818    0.0000 C   0  0  0  0  0  0  0  0  0  0  0  0
    9.1288  -21.1817    0.0000 O   0  0  0  0  0  0  0  0  0  0  0  0
    6.2709  -18.7067    0.0000 O   0  0  0  0  0  0  0  0  0  0  0  0
  1  2  1  0  0  0  0
  1  3  1  0  0  0  0
  2  4  1  0  0  0  0
  3  5  1  0  0  0  0
  4  6  1  0  0  0  0
  5  6  1  0  0  0  0
  1  7  1  1  0  0  0
  2  8  1  6  0  0  0
  4  9  1  1  0  0  0
  6 10  1  6  0  0  0
  5 11  1  1  0  0  0
 12 11  1  0  0  0  0
  8 13  1  0  0  0  0
 13 14  1  0  0  0  0
 13 15  2  0  0  0  0
 16 17  1  0  0  0  0
 16 18  1  0  0  0  0
 17 19  1  0  0  0  0
 18 20  1  0  0  0  0
 19 21  1  0  0  0  0
 20 21  1  0  0  0  0
 16 22  1  6  0  0  0
 17 23  1  6  0  0  0
 19  7  1  1  0  0  0
 21 24  1  1  0  0  0
 20 25  1  1  0  0  0
 23 26  1  0  0  0  0
 26 27  1  0  0  0  0
 26 28  2  0  0  0  0
 25 29  1  0  0  0  0
M  END
> <ID>
CHEBI:71344

> <NAME>
beta-D-GlcpNAc-(1->3)-alpha-D-GalpNAc

> <DEFINITION>
An amino disaccharide comprising an N-acetyl-β-D-glucosamine residue linked (1→3) to an N-acetyl-β-D-galactosamine residue at the reducing end.

> <STAR>
3

> <SYNONYM>
N-acetyl-beta-D-glucosaminyl-(1->3)-N-acetyl-alpha-D-galactosamine; GlcNAcbeta1-3GalNAcalpha; GlcNAcb1-3GalNAca; beta-D-GlcNAc-(1->3)-alpha-D-GalNAc; 2-acetamido-3-O-(2-acetamido-2-deoxy-beta-D-glucopyranosyl)-2-deoxy-alpha-D-galactopyranose

> <IUPAC_NAME>
2-acetamido-2-deoxy-beta-D-glucopyranosyl-(1->3)-2-acetamido-2-deoxy-alpha-D-galactopyranose

> <FORMULA>
C16H28N2O11

> <MASS>
424.40030

> <MONOISOTOPIC_MASS>
424.16931

> <CHARGE>
0

> <SMILES>
CC(=O)N[C@H]1[C@@H](O)O[C@H](CO)[C@H](O)[C@@H]1O[C@@H]1O[C@H](CO)[C@@H](O)[C@H](O)[C@H]1NC(C)=O

> <INCHI>
InChI=1S/C16H28N2O11/c1-5(21)17-9-13(25)11(23)7(3-19)28-16(9)29-14-10(18-6(2)22)15(26)27-8(4-20)12(14)24/h7-16,19-20,23-26H,3-4H2,1-2H3,(H,17,21)(H,18,22)/t7-,8-,9-,10-,11-,12+,13-,14-,15+,16+/m1/s1

> <INCHIKEY>
FJGXDMQHNYEUHI-GVGNQZIPSA-N

> <PUBMED_CITATION>
19443021; 25568069; 31537530

$$$$

Marvin  12051216472D          

 40 42  0  0  1  0            999 V2000
    9.1862   -8.3905    0.0000 C   0  0  1  0  0  0  0  0  0  0  0  0
    9.1862   -9.2155    0.0000 C   0  0  1  0  0  0  0  0  0  0  0  0
    8.4718   -7.9780    0.0000 O   0  0  0  0  0  0  0  0  0  0  0  0
    8.4718   -9.6280    0.0000 C   0  0  2  0  0  0  0  0  0  0  0  0
    7.7573   -8.3905    0.0000 C   0  0  1  0  0  0  0  0  0  0  0  0
    7.7573   -9.2155    0.0000 C   0  0  1  0  0  0  0  0  0  0  0  0
    9.9007   -7.9780    0.0000 O   0  0  0  0  0  0  0  0  0  0  0  0
    9.9007   -9.6280    0.0000 N   0  0  0  0  0  0  0  0  0  0  0  0
    8.4718  -10.4530    0.0000 O   0  0  0  0  0  0  0  0  0  0  0  0
    7.0429   -9.6280    0.0000 O   0  0  0  0  0  0  0  0  0  0  0  0
    7.0429   -7.9780    0.0000 C   0  0  0  0  0  0  0  0  0  0  0  0
    6.3284   -8.3905    0.0000 O   0  0  0  0  0  0  0  0  0  0  0  0
   10.6152   -5.9156    0.0000 C   0  0  1  0  0  0  0  0  0  0  0  0
   10.6152   -6.7406    0.0000 C   0  0  1  0  0  0  0  0  0  0  0  0
    9.9007   -5.5031    0.0000 O   0  0  0  0  0  0  0  0  0  0  0  0
    9.9007   -7.1531    0.0000 C   0  0  2  0  0  0  0  0  0  0  0  0
    9.1862   -5.9156    0.0000 C   0  0  1  0  0  0  0  0  0  0  0  0
    9.1862   -6.7406    0.0000 C   0  0  2  0  0  0  0  0  0  0  0  0
   11.3297   -5.5031    0.0000 O   0  0  0  0  0  0  0  0  0  0  0  0
   11.3297   -7.1531    0.0000 O   0  0  0  0  0  0  0  0  0  0  0  0
    8.4719   -7.1531    0.0000 O   0  0  0  0  0  0  0  0  0  0  0  0
    8.4719   -5.5031    0.0000 C   0  0  0  0  0  0  0  0  0  0  0  0
    7.7574   -5.9156    0.0000 O   0  0  0  0  0  0  0  0  0  0  0  0
    9.9007  -10.4530    0.0000 C   0  0  0  0  0  0  0  0  0  0  0  0
   10.6152  -10.8655    0.0000 C   0  0  0  0  0  0  0  0  0  0  0  0
    9.1862  -10.8655    0.0000 O   0  0  0  0  0  0  0  0  0  0  0  0
   13.4732   -4.2656    0.0000 C   0  0  1  0  0  0  0  0  0  0  0  0
   13.4732   -5.0906    0.0000 C   0  0  1  0  0  0  0  0  0  0  0  0
   12.7586   -3.8531    0.0000 O   0  0  0  0  0  0  0  0  0  0  0  0
   12.7586   -5.5031    0.0000 C   0  0  2  0  0  0  0  0  0  0  0  0
   12.0442   -4.2656    0.0000 C   0  0  1  0  0  0  0  0  0  0  0  0
   12.0442   -5.0906    0.0000 C   0  0  1  0  0  0  0  0  0  0  0  0
   14.1876   -3.8530    0.0000 O   0  0  0  0  0  0  0  0  0  0  0  0
   14.1876   -5.5031    0.0000 N   0  0  0  0  0  0  0  0  0  0  0  0
   12.7586   -6.3281    0.0000 O   0  0  0  0  0  0  0  0  0  0  0  0
   11.3297   -3.8531    0.0000 C   0  0  0  0  0  0  0  0  0  0  0  0
   10.6152   -4.2656    0.0000 O   0  0  0  0  0  0  0  0  0  0  0  0
   14.1876   -6.3281    0.0000 C   0  0  0  0  0  0  0  0  0  0  0  0
   14.9021   -6.7406    0.0000 C   0  0  0  0  0  0  0  0  0  0  0  0
   13.4731   -6.7406    0.0000 O   0  0  0  0  0  0  0  0  0  0  0  0
  1  2  1  0  0  0  0
  1  3  1  0  0  0  0
  2  4  1  0  0  0  0
  3  5  1  0  0  0  0
  4  6  1  0  0  0  0
  5  6  1  0  0  0  0
  1  7  1  1  0  0  0
  2  8  1  6  0  0  0
  4  9  1  1  0  0  0
  6 10  1  6  0  0  0
  5 11  1  1  0  0  0
 12 11  1  0  0  0  0
 13 14  1  0  0  0  0
 13 15  1  0  0  0  0
 14 16  1  0  0  0  0
 15 17  1  0  0  0  0
 16 18  1  0  0  0  0
 17 18  1  0  0  0  0
 13 19  1  1  0  0  0
 14 20  1  6  0  0  0
 16  7  1  1  0  0  0
 18 21  1  1  0  0  0
 17 22  1  1  0  0  0
 23 22  1  0  0  0  0
  8 24  1  0  0  0  0
 24 25  1  0  0  0  0
 24 26  2  0  0  0  0
 27 28  1  0  0  0  0
 27 29  1  0  0  0  0
 28 30  1  0  0  0  0
 29 31  1  0  0  0  0
 30 32  1  0  0  0  0
 31 32  1  0  0  0  0
 27 33  1  1  0  0  0
 28 34  1  6  0  0  0
 30 35  1  1  0  0  0
 32 19  1  6  0  0  0
 31 36  1  1  0  0  0
 37 36  1  0  0  0  0
 34 38  1  0  0  0  0
 38 39  1  0  0  0  0
 38 40  2  0  0  0  0
M  END
> <ID>
CHEBI:71355

> <NAME>
beta-D-GlcpNAc-(1->3)-beta-D-Galp-(1->4)-beta-D-GlcpNAc

> <DEFINITION>
A linear amino trisaccharide comprising N-acetyl-β-D-glucosamine, β-D-galactose and N-acetyl-β-D-glucosamine residues linked sequentially (1→3) and (1→4).

> <STAR>
3

> <SYNONYM>
N-acetyl-beta-D-glucosaminyl-(1->3)-beta-D-galactosyl-(1->4)-N-acetyl-beta-D-glucosamine; GlcNAcbeta1-3Galbeta1-4GlcNAcbeta; GlcNAcb1-3Galb1-4GlcNAcb; beta-D-GlcNAc-(1->3)-beta-D-Gal-(1->4)-beta-D-GlcNAc

> <IUPAC_NAME>
2-acetamido-2-deoxy-beta-D-glucopyranosyl-(1->3)-beta-D-galactopyranosyl-(1->4)-2-acetamido-2-deoxy-beta-D-glucopyranose

> <FORMULA>
C22H38N2O16

> <MASS>
586.54090

> <MONOISOTOPIC_MASS>
586.22213

> <CHARGE>
0

> <SMILES>
CC(=O)N[C@H]1[C@H](O)O[C@H](CO)[C@@H](O[C@@H]2O[C@H](CO)[C@H](O)[C@H](O[C@@H]3O[C@H](CO)[C@@H](O)[C@H](O)[C@H]3NC(C)=O)[C@H]2O)[C@@H]1O

> <INCHI>
InChI=1S/C22H38N2O16/c1-6(28)23-11-16(33)18(10(5-27)36-20(11)35)39-22-17(34)19(14(31)9(4-26)38-22)40-21-12(24-7(2)29)15(32)13(30)8(3-25)37-21/h8-22,25-27,30-35H,3-5H2,1-2H3,(H,23,28)(H,24,29)/t8-,9-,10-,11-,12-,13-,14+,15-,16-,17-,18-,19+,20-,21+,22+/m1/s1

> <INCHIKEY>
LJYGCZXFBOCZHA-XFZXOASTSA-N

> <REAXYS_REGISTRY_NUMBER>
8026360

> <PUBMED_CITATION>
19443021; 25568069; 31537530

$$$$

Marvin  12061213172D          

 43 45  0  0  1  0            999 V2000
    9.6877  -18.7364    0.0000 C   0  0  1  0  0  0  0  0  0  0  0  0
    9.6877  -19.5614    0.0000 C   0  0  1  0  0  0  0  0  0  0  0  0
    8.9732  -18.3239    0.0000 O   0  0  0  0  0  0  0  0  0  0  0  0
    8.9732  -19.9739    0.0000 C   0  0  2  0  0  0  0  0  0  0  0  0
    8.2587  -18.7364    0.0000 C   0  0  1  0  0  0  0  0  0  0  0  0
    8.2587  -19.5614    0.0000 C   0  0  1  0  0  0  0  0  0  0  0  0
   10.4022  -18.3239    0.0000 O   0  0  0  0  0  0  0  0  0  0  0  0
   10.4022  -19.9740    0.0000 N   0  0  0  0  0  0  0  0  0  0  0  0
    8.9732  -20.7989    0.0000 O   0  0  0  0  0  0  0  0  0  0  0  0
    7.5443  -19.9739    0.0000 O   0  0  0  0  0  0  0  0  0  0  0  0
    7.5443  -18.3239    0.0000 C   0  0  0  0  0  0  0  0  0  0  0  0
    6.8298  -18.7365    0.0000 O   0  0  0  0  0  0  0  0  0  0  0  0
   10.4022  -20.7990    0.0000 C   0  0  0  0  0  0  0  0  0  0  0  0
   11.1167  -21.2115    0.0000 C   0  0  0  0  0  0  0  0  0  0  0  0
    9.6877  -21.2114    0.0000 O   0  0  0  0  0  0  0  0  0  0  0  0
   12.5456  -17.0864    0.0000 C   0  0  2  0  0  0  0  0  0  0  0  0
   12.5456  -17.9114    0.0000 C   0  0  1  0  0  0  0  0  0  0  0  0
   11.8311  -16.6739    0.0000 O   0  0  0  0  0  0  0  0  0  0  0  0
   11.8311  -18.3239    0.0000 C   0  0  2  0  0  0  0  0  0  0  0  0
   11.1167  -17.0864    0.0000 C   0  0  1  0  0  0  0  0  0  0  0  0
   11.1167  -17.9114    0.0000 C   0  0  2  0  0  0  0  0  0  0  0  0
   13.2601  -16.6739    0.0000 O   0  0  0  0  0  0  0  0  0  0  0  0
   13.2601  -18.3239    0.0000 N   0  0  0  0  0  0  0  0  0  0  0  0
   11.8311  -19.1489    0.0000 O   0  0  0  0  0  0  0  0  0  0  0  0
   10.4022  -16.6739    0.0000 C   0  0  0  0  0  0  0  0  0  0  0  0
   13.2601  -19.1489    0.0000 C   0  0  0  0  0  0  0  0  0  0  0  0
   13.9746  -19.5615    0.0000 C   0  0  0  0  0  0  0  0  0  0  0  0
   12.5456  -19.5614    0.0000 O   0  0  0  0  0  0  0  0  0  0  0  0
   10.4022  -15.8489    0.0000 O   0  0  0  0  0  0  0  0  0  0  0  0
    9.9897  -15.1345    0.0000 C   0  0  1  0  0  0  0  0  0  0  0  0
    9.1647  -15.1345    0.0000 C   0  0  1  0  0  0  0  0  0  0  0  0
   10.4022  -14.4199    0.0000 O   0  0  0  0  0  0  0  0  0  0  0  0
    8.7522  -14.4199    0.0000 C   0  0  2  0  0  0  0  0  0  0  0  0
    9.9897  -13.7055    0.0000 C   0  0  1  0  0  0  0  0  0  0  0  0
    9.1647  -13.7055    0.0000 C   0  0  1  0  0  0  0  0  0  0  0  0
    8.7521  -15.8489    0.0000 N   0  0  0  0  0  0  0  0  0  0  0  0
    7.9272  -14.4199    0.0000 O   0  0  0  0  0  0  0  0  0  0  0  0
    8.7522  -12.9910    0.0000 O   0  0  0  0  0  0  0  0  0  0  0  0
   10.4022  -12.9910    0.0000 C   0  0  0  0  0  0  0  0  0  0  0  0
    9.9897  -12.2766    0.0000 O   0  0  0  0  0  0  0  0  0  0  0  0
    7.9271  -15.8489    0.0000 C   0  0  0  0  0  0  0  0  0  0  0  0
    7.5146  -16.5634    0.0000 C   0  0  0  0  0  0  0  0  0  0  0  0
    7.5147  -15.1345    0.0000 O   0  0  0  0  0  0  0  0  0  0  0  0
  1  2  1  0  0  0  0
  1  3  1  0  0  0  0
  2  4  1  0  0  0  0
  3  5  1  0  0  0  0
  4  6  1  0  0  0  0
  5  6  1  0  0  0  0
  1  7  1  1  0  0  0
  2  8  1  6  0  0  0
  4  9  1  1  0  0  0
  6 10  1  6  0  0  0
  5 11  1  1  0  0  0
 12 11  1  0  0  0  0
  8 13  1  0  0  0  0
 13 14  1  0  0  0  0
 13 15  2  0  0  0  0
 16 17  1  0  0  0  0
 16 18  1  0  0  0  0
 17 19  1  0  0  0  0
 18 20  1  0  0  0  0
 19 21  1  0  0  0  0
 20 21  1  0  0  0  0
 16 22  1  6  0  0  0
 17 23  1  6  0  0  0
 19 24  1  1  0  0  0
 21  7  1  1  0  0  0
 20 25  1  1  0  0  0
 23 26  1  0  0  0  0
 26 27  1  0  0  0  0
 26 28  2  0  0  0  0
 25 29  1  0  0  0  0
 30 31  1  0  0  0  0
 30 32  1  0  0  0  0
 31 33  1  0  0  0  0
 32 34  1  0  0  0  0
 33 35  1  0  0  0  0
 34 35  1  0  0  0  0
 30 29  1  1  0  0  0
 31 36  1  6  0  0  0
 33 37  1  1  0  0  0
 35 38  1  6  0  0  0
 34 39  1  1  0  0  0
 40 39  1  0  0  0  0
 36 41  1  0  0  0  0
 41 42  1  0  0  0  0
 41 43  2  0  0  0  0
M  END
> <ID>
CHEBI:71360

> <NAME>
beta-D-GlcpNAc-(1->4)-[beta-D-GlcpNAc-(1->6)]-alpha-D-GalpNAc

> <DEFINITION>
A branched amino trisaccharide comprised of two N-acetyl-β-D-glucosamine residues linked (1→4) and (1→6) to N-acetyl-α-D-galactosamine.

> <STAR>
3

> <SYNONYM>
N-acetyl-beta-D-glucosaminyl-(1->4)-[N-acetyl-beta-D-glucosaminyl-(1->6)]-N-acetyl-alpha-D-galactosamine; GlcNAcbeta1-4(GlcNAcbeta1-6)GalNAcalpha; GlcNAcb1-6(GlcNAcb1-4)GalNAca; beta-D-GlcNAc-(1->4)-[beta-D-GlcNAc-(1->6)]-alpha-D-GalNAc

> <IUPAC_NAME>
2-acetamido-2-deoxy-beta-D-glucopyranosyl-(1->4)-[2-acetamido-2-deoxy-beta-D-glucopyranosyl-(1->6)]-2-acetamido-2-deoxy-alpha-D-galactopyranose

> <FORMULA>
C24H41N3O16

> <MASS>
627.59280

> <MONOISOTOPIC_MASS>
627.24868

> <CHARGE>
0

> <SMILES>
CC(=O)N[C@H]1[C@@H](O)O[C@H](CO[C@@H]2O[C@H](CO)[C@@H](O)[C@H](O)[C@H]2NC(C)=O)[C@H](O[C@@H]2O[C@H](CO)[C@@H](O)[C@H](O)[C@H]2NC(C)=O)[C@@H]1O

> <INCHI>
InChI=1S/C24H41N3O16/c1-7(30)25-13-20(37)21(43-24-15(27-9(3)32)19(36)17(34)11(5-29)42-24)12(40-22(13)38)6-39-23-14(26-8(2)31)18(35)16(33)10(4-28)41-23/h10-24,28-29,33-38H,4-6H2,1-3H3,(H,25,30)(H,26,31)(H,27,32)/t10-,11-,12-,13-,14-,15-,16-,17-,18-,19-,20-,21+,22+,23-,24+/m1/s1

> <INCHIKEY>
SSUUMLTVVTWINF-XFZHNGNHSA-N

> <PUBMED_CITATION>
19443021; 25568069; 31537530

$$$$

Marvin  12101211142D          

 40 42  0  0  1  0            999 V2000
    9.3318   -7.8227    0.0000 C   0  0  1  0  0  0  0  0  0  0  0  0
    9.3318   -8.6477    0.0000 C   0  0  1  0  0  0  0  0  0  0  0  0
    8.6172   -7.4102    0.0000 O   0  0  0  0  0  0  0  0  0  0  0  0
    8.6172   -9.0602    0.0000 C   0  0  2  0  0  0  0  0  0  0  0  0
    7.9028   -7.8227    0.0000 C   0  0  1  0  0  0  0  0  0  0  0  0
    7.9028   -8.6477    0.0000 C   0  0  1  0  0  0  0  0  0  0  0  0
   10.0462   -7.4102    0.0000 O   0  0  0  0  0  0  0  0  0  0  0  0
   10.0462   -9.0602    0.0000 N   0  0  0  0  0  0  0  0  0  0  0  0
    8.6172   -9.8852    0.0000 O   0  0  0  0  0  0  0  0  0  0  0  0
    7.1883   -9.0602    0.0000 O   0  0  0  0  0  0  0  0  0  0  0  0
    7.1883   -7.4102    0.0000 C   0  0  0  0  0  0  0  0  0  0  0  0
    6.4738   -7.8227    0.0000 O   0  0  0  0  0  0  0  0  0  0  0  0
   10.0462   -9.8852    0.0000 C   0  0  0  0  0  0  0  0  0  0  0  0
   10.7607  -10.2977    0.0000 C   0  0  0  0  0  0  0  0  0  0  0  0
    9.3317  -10.2977    0.0000 O   0  0  0  0  0  0  0  0  0  0  0  0
   12.1897   -6.1727    0.0000 C   0  0  1  0  0  0  0  0  0  0  0  0
   12.1897   -6.9977    0.0000 C   0  0  1  0  0  0  0  0  0  0  0  0
   11.4752   -5.7602    0.0000 O   0  0  0  0  0  0  0  0  0  0  0  0
   11.4752   -7.4102    0.0000 C   0  0  2  0  0  0  0  0  0  0  0  0
   10.7607   -6.1727    0.0000 C   0  0  1  0  0  0  0  0  0  0  0  0
   10.7607   -6.9977    0.0000 C   0  0  2  0  0  0  0  0  0  0  0  0
   12.9042   -5.7601    0.0000 O   0  0  0  0  0  0  0  0  0  0  0  0
   12.9042   -7.4102    0.0000 O   0  0  0  0  0  0  0  0  0  0  0  0
   11.4751   -8.2352    0.0000 O   0  0  0  0  0  0  0  0  0  0  0  0
   10.0462   -5.7602    0.0000 C   0  0  0  0  0  0  0  0  0  0  0  0
    9.3318   -6.1727    0.0000 O   0  0  0  0  0  0  0  0  0  0  0  0
   15.0476   -4.5227    0.0000 C   0  0  1  0  0  0  0  0  0  0  0  0
   15.0476   -5.3477    0.0000 C   0  0  1  0  0  0  0  0  0  0  0  0
   14.3331   -4.1101    0.0000 O   0  0  0  0  0  0  0  0  0  0  0  0
   14.3331   -5.7602    0.0000 C   0  0  2  0  0  0  0  0  0  0  0  0
   13.6186   -4.5227    0.0000 C   0  0  1  0  0  0  0  0  0  0  0  0
   13.6186   -5.3477    0.0000 C   0  0  1  0  0  0  0  0  0  0  0  0
   15.7620   -4.1101    0.0000 O   0  0  0  0  0  0  0  0  0  0  0  0
   15.7620   -5.7602    0.0000 N   0  0  0  0  0  0  0  0  0  0  0  0
   14.3330   -6.5852    0.0000 O   0  0  0  0  0  0  0  0  0  0  0  0
   12.9042   -4.1101    0.0000 C   0  0  0  0  0  0  0  0  0  0  0  0
   12.1897   -4.5227    0.0000 O   0  0  0  0  0  0  0  0  0  0  0  0
   15.7620   -6.5852    0.0000 C   0  0  0  0  0  0  0  0  0  0  0  0
   16.4765   -6.9977    0.0000 C   0  0  0  0  0  0  0  0  0  0  0  0
   15.0476   -6.9976    0.0000 O   0  0  0  0  0  0  0  0  0  0  0  0
  1  2  1  0  0  0  0
  1  3  1  0  0  0  0
  2  4  1  0  0  0  0
  3  5  1  0  0  0  0
  4  6  1  0  0  0  0
  5  6  1  0  0  0  0
  1  7  1  1  0  0  0
  2  8  1  6  0  0  0
  4  9  1  1  0  0  0
  6 10  1  6  0  0  0
  5 11  1  1  0  0  0
 12 11  1  0  0  0  0
  8 13  1  0  0  0  0
 13 14  1  0  0  0  0
 13 15  2  0  0  0  0
 16 17  1  0  0  0  0
 16 18  1  0  0  0  0
 17 19  1  0  0  0  0
 18 20  1  0  0  0  0
 19 21  1  0  0  0  0
 20 21  1  0  0  0  0
 16 22  1  1  0  0  0
 17 23  1  6  0  0  0
 19 24  1  1  0  0  0
 21  7  1  1  0  0  0
 20 25  1  1  0  0  0
 26 25  1  0  0  0  0
 27 28  1  0  0  0  0
 27 29  1  0  0  0  0
 28 30  1  0  0  0  0
 29 31  1  0  0  0  0
 30 32  1  0  0  0  0
 31 32  1  0  0  0  0
 27 33  1  1  0  0  0
 28 34  1  6  0  0  0
 30 35  1  1  0  0  0
 32 22  1  6  0  0  0
 31 36  1  1  0  0  0
 37 36  1  0  0  0  0
 34 38  1  0  0  0  0
 38 39  1  0  0  0  0
 38 40  2  0  0  0  0
M  END
> <ID>
CHEBI:71398

> <NAME>
beta-D-GlcpNAc-(1->4)-beta-D-Galp-(1->4)-beta-D-GlcpNAc

> <DEFINITION>
A linear amino trisaccharide comprising a sequence of N-acetyl-β-D-glucosamine, β-D-galactose and another N-acetyl-β-D-glucosamine connected by (1→4) linkages.

> <STAR>
3

> <SYNONYM>
N-acetyl-beta-D-glucosaminyl-(1->4)-beta-D-galactosyl-(1->4)-N-acetyl-beta-D-glucosamine; GlcNAcbeta1-4Galbeta1-4GlcNAcbeta; beta-D-GlcNAc-(1->4)-beta-D-Gal-(1->4)-beta-D-GlcNAc

> <IUPAC_NAME>
2-acetamido-2-deoxy-beta-D-glucopyranosyl-(1->4)-beta-D-galactopyranosyl-(1->4)-2-acetamido-2-deoxy-beta-D-glucopyranose

> <FORMULA>
C22H38N2O16

> <MASS>
586.54090

> <MONOISOTOPIC_MASS>
586.22213

> <CHARGE>
0

> <SMILES>
CC(=O)N[C@H]1[C@H](O)O[C@H](CO)[C@@H](O[C@@H]2O[C@H](CO)[C@H](O[C@@H]3O[C@H](CO)[C@@H](O)[C@H](O)[C@H]3NC(C)=O)[C@H](O)[C@H]2O)[C@@H]1O

> <INCHI>
InChI=1S/C22H38N2O16/c1-6(28)23-11-15(32)18(9(4-26)36-20(11)35)40-22-17(34)16(33)19(10(5-27)38-22)39-21-12(24-7(2)29)14(31)13(30)8(3-25)37-21/h8-22,25-27,30-35H,3-5H2,1-2H3,(H,23,28)(H,24,29)/t8-,9-,10-,11-,12-,13-,14-,15-,16-,17-,18-,19+,20-,21+,22+/m1/s1

> <INCHIKEY>
QKUOCJMMCKELLD-FVWDWMNTSA-N

> <PUBMED_CITATION>
19443021; 31537530

$$$$

Marvin  12101212042D          

 43 45  0  0  1  0            999 V2000
    8.6955  -17.9910    0.0000 C   0  0  1  0  0  0  0  0  0  0  0  0
    8.6955  -18.8160    0.0000 C   0  0  1  0  0  0  0  0  0  0  0  0
    7.9810  -17.5785    0.0000 O   0  0  0  0  0  0  0  0  0  0  0  0
    7.9810  -19.2285    0.0000 C   0  0  2  0  0  0  0  0  0  0  0  0
    7.2666  -17.9910    0.0000 C   0  0  1  0  0  0  0  0  0  0  0  0
    7.2666  -18.8160    0.0000 C   0  0  1  0  0  0  0  0  0  0  0  0
    9.4100  -17.5785    0.0000 O   0  0  0  0  0  0  0  0  0  0  0  0
    9.4100  -19.2285    0.0000 N   0  0  0  0  0  0  0  0  0  0  0  0
    7.9810  -20.0535    0.0000 O   0  0  0  0  0  0  0  0  0  0  0  0
    6.5521  -19.2285    0.0000 O   0  0  0  0  0  0  0  0  0  0  0  0
    6.5521  -17.5785    0.0000 C   0  0  0  0  0  0  0  0  0  0  0  0
    5.8376  -17.9910    0.0000 O   0  0  0  0  0  0  0  0  0  0  0  0
    9.4100  -20.0535    0.0000 C   0  0  0  0  0  0  0  0  0  0  0  0
   10.1244  -20.4660    0.0000 C   0  0  0  0  0  0  0  0  0  0  0  0
    8.6955  -20.4660    0.0000 O   0  0  0  0  0  0  0  0  0  0  0  0
   11.5534  -16.3410    0.0000 C   0  0  1  0  0  0  0  0  0  0  0  0
   11.5534  -17.1660    0.0000 C   0  0  1  0  0  0  0  0  0  0  0  0
   10.8389  -15.9285    0.0000 O   0  0  0  0  0  0  0  0  0  0  0  0
   10.8389  -17.5785    0.0000 C   0  0  2  0  0  0  0  0  0  0  0  0
   10.1245  -16.3410    0.0000 C   0  0  1  0  0  0  0  0  0  0  0  0
   10.1245  -17.1660    0.0000 C   0  0  1  0  0  0  0  0  0  0  0  0
   12.2679  -15.9285    0.0000 O   0  0  0  0  0  0  0  0  0  0  0  0
   12.2679  -17.5785    0.0000 N   0  0  0  0  0  0  0  0  0  0  0  0
   10.8389  -18.4035    0.0000 O   0  0  0  0  0  0  0  0  0  0  0  0
    9.4100  -15.9285    0.0000 C   0  0  0  0  0  0  0  0  0  0  0  0
    8.6955  -16.3410    0.0000 O   0  0  0  0  0  0  0  0  0  0  0  0
   12.2679  -18.4035    0.0000 C   0  0  0  0  0  0  0  0  0  0  0  0
   12.9823  -18.8160    0.0000 C   0  0  0  0  0  0  0  0  0  0  0  0
   11.5534  -18.8160    0.0000 O   0  0  0  0  0  0  0  0  0  0  0  0
   14.4113  -14.6910    0.0000 C   0  0  1  0  0  0  0  0  0  0  0  0
   14.4113  -15.5160    0.0000 C   0  0  1  0  0  0  0  0  0  0  0  0
   13.6968  -14.2785    0.0000 O   0  0  0  0  0  0  0  0  0  0  0  0
   13.6968  -15.9285    0.0000 C   0  0  2  0  0  0  0  0  0  0  0  0
   12.9823  -14.6910    0.0000 C   0  0  1  0  0  0  0  0  0  0  0  0
   12.9823  -15.5160    0.0000 C   0  0  1  0  0  0  0  0  0  0  0  0
   15.1258  -14.2785    0.0000 O   0  0  0  0  0  0  0  0  0  0  0  0
   15.1258  -15.9285    0.0000 N   0  0  0  0  0  0  0  0  0  0  0  0
   13.6968  -16.7535    0.0000 O   0  0  0  0  0  0  0  0  0  0  0  0
   12.2679  -14.2785    0.0000 C   0  0  0  0  0  0  0  0  0  0  0  0
   11.5534  -14.6910    0.0000 O   0  0  0  0  0  0  0  0  0  0  0  0
   15.1258  -16.7535    0.0000 C   0  0  0  0  0  0  0  0  0  0  0  0
   15.8402  -17.1660    0.0000 C   0  0  0  0  0  0  0  0  0  0  0  0
   14.4113  -17.1660    0.0000 O   0  0  0  0  0  0  0  0  0  0  0  0
  1  2  1  0  0  0  0
  1  3  1  0  0  0  0
  2  4  1  0  0  0  0
  3  5  1  0  0  0  0
  4  6  1  0  0  0  0
  5  6  1  0  0  0  0
  1  7  1  1  0  0  0
  2  8  1  6  0  0  0
  4  9  1  1  0  0  0
  6 10  1  6  0  0  0
  5 11  1  1  0  0  0
 12 11  1  0  0  0  0
  8 13  1  0  0  0  0
 13 14  1  0  0  0  0
 13 15  2  0  0  0  0
 16 17  1  0  0  0  0
 16 18  1  0  0  0  0
 17 19  1  0  0  0  0
 18 20  1  0  0  0  0
 19 21  1  0  0  0  0
 20 21  1  0  0  0  0
 16 22  1  1  0  0  0
 17 23  1  6  0  0  0
 19 24  1  1  0  0  0
 21  7  1  6  0  0  0
 20 25  1  1  0  0  0
 26 25  1  0  0  0  0
 23 27  1  0  0  0  0
 27 28  1  0  0  0  0
 27 29  2  0  0  0  0
 30 31  1  0  0  0  0
 30 32  1  0  0  0  0
 31 33  1  0  0  0  0
 32 34  1  0  0  0  0
 33 35  1  0  0  0  0
 34 35  1  0  0  0  0
 30 36  1  1  0  0  0
 31 37  1  6  0  0  0
 33 38  1  1  0  0  0
 35 22  1  6  0  0  0
 34 39  1  1  0  0  0
 40 39  1  0  0  0  0
 37 41  1  0  0  0  0
 41 42  1  0  0  0  0
 41 43  2  0  0  0  0
M  END
> <ID>
CHEBI:71404

> <NAME>
beta-D-GlcpNAc-(1->4)-beta-D-GlcpNAc-(1->4)-beta-D-GlcpNAc

> <DEFINITION>
A linear amino trisaccharide consisting of three N-acetyl-β-D-glucosamine residues linked (1→4).

> <STAR>
3

> <SYNONYM>
N-acetyl-beta-D-glucosaminyl-(1->4)-N-acetyl-beta-D-glucosaminyl-(1->4)-N-acetyl-beta-D-glucosamine; N,N',N''-triacetyl chitotriose beta-anomer; GlcNAcbeta1-4GlcNAcbeta1-4GlcNAcbeta; GlcNAcb1-4GlcNAcb1-4GlcNAcb; beta-N,N',N''-triacetylchitotriose; beta-D-GlcNAc-(1->4)-beta-D-GlcNAc-(1->4)-beta-D-GlcNAc; (beta)-N,N',N''-triacetyl chitotriose

> <IUPAC_NAME>
2-acetamido-2-deoxy-beta-D-glucopyranosyl-(1->4)-2-acetamido-2-deoxy-beta-D-glucopyranosyl-(1->4)-2-acetamido-2-deoxy-beta-D-glucopyranose

> <FORMULA>
C24H41N3O16

> <MASS>
627.59280

> <MONOISOTOPIC_MASS>
627.24868

> <CHARGE>
0

> <SMILES>
CC(=O)N[C@H]1[C@H](O)O[C@H](CO)[C@@H](O[C@@H]2O[C@H](CO)[C@@H](O[C@@H]3O[C@H](CO)[C@@H](O)[C@H](O)[C@H]3NC(C)=O)[C@H](O)[C@H]2NC(C)=O)[C@@H]1O

> <INCHI>
InChI=1S/C24H41N3O16/c1-7(31)25-13-18(36)20(11(5-29)39-22(13)38)42-24-15(27-9(3)33)19(37)21(12(6-30)41-24)43-23-14(26-8(2)32)17(35)16(34)10(4-28)40-23/h10-24,28-30,34-38H,4-6H2,1-3H3,(H,25,31)(H,26,32)(H,27,33)/t10-,11-,12-,13-,14-,15-,16-,17-,18-,19-,20-,21-,22-,23+,24+/m1/s1

> <INCHIKEY>
WZZVUHWLNMNWLW-VFCSDQTKSA-N

> <CAS_REGISTRY_NUMBER>
13319-32-9

> <REAXYS_REGISTRY_NUMBER>
1419590

> <HMDB_ACCESSION>
HMDB0006698

> <PUBMED_CITATION>
19443021; 25568069; 31537530

$$$$

Marvin  12111213522D          

 23 24  0  0  1  0            999 V2000
   10.8525  -16.9871    0.0000 C   0  0  1  0  0  0  0  0  0  0  0  0
   10.8525  -17.8121    0.0000 C   0  0  1  0  0  0  0  0  0  0  0  0
   10.1379  -16.5746    0.0000 O   0  0  0  0  0  0  0  0  0  0  0  0
   10.1379  -18.2246    0.0000 C   0  0  2  0  0  0  0  0  0  0  0  0
    9.4235  -16.9871    0.0000 C   0  0  1  0  0  0  0  0  0  0  0  0
    9.4235  -17.8121    0.0000 C   0  0  1  0  0  0  0  0  0  0  0  0
   11.5669  -16.5746    0.0000 O   0  0  0  0  0  0  0  0  0  0  0  0
   11.5669  -18.2246    0.0000 O   0  0  0  0  0  0  0  0  0  0  0  0
   10.1379  -19.0496    0.0000 O   0  0  0  0  0  0  0  0  0  0  0  0
    8.7090  -18.2246    0.0000 O   0  0  0  0  0  0  0  0  0  0  0  0
    8.7090  -16.5746    0.0000 C   0  0  0  0  0  0  0  0  0  0  0  0
    7.9946  -16.9871    0.0000 O   0  0  0  0  0  0  0  0  0  0  0  0
    7.2801  -16.5746    0.0000 C   0  0  1  0  0  0  0  0  0  0  0  0
    6.5656  -16.9871    0.0000 C   0  0  1  0  0  0  0  0  0  0  0  0
    7.2801  -15.7495    0.0000 O   0  0  0  0  0  0  0  0  0  0  0  0
    5.8511  -16.5745    0.0000 C   0  0  2  0  0  0  0  0  0  0  0  0
    6.5656  -15.3370    0.0000 C   0  0  1  0  0  0  0  0  0  0  0  0
    5.8512  -15.7495    0.0000 C   0  0  1  0  0  0  0  0  0  0  0  0
    6.5656  -17.8121    0.0000 O   0  0  0  0  0  0  0  0  0  0  0  0
    5.1366  -16.9869    0.0000 O   0  0  0  0  0  0  0  0  0  0  0  0
    5.1367  -15.3369    0.0000 O   0  0  0  0  0  0  0  0  0  0  0  0
    6.5656  -14.5120    0.0000 C   0  0  0  0  0  0  0  0  0  0  0  0
    5.8512  -14.0995    0.0000 O   0  0  0  0  0  0  0  0  0  0  0  0
  1  2  1  0  0  0  0
  1  3  1  0  0  0  0
  2  4  1  0  0  0  0
  3  5  1  0  0  0  0
  4  6  1  0  0  0  0
  5  6  1  0  0  0  0
  1  7  1  1  0  0  0
  2  8  1  6  0  0  0
  4  9  1  1  0  0  0
  6 10  1  6  0  0  0
  5 11  1  1  0  0  0
 12 11  1  0  0  0  0
 13 14  1  0  0  0  0
 13 15  1  0  0  0  0
 14 16  1  0  0  0  0
 15 17  1  0  0  0  0
 16 18  1  0  0  0  0
 17 18  1  0  0  0  0
 13 12  1  1  0  0  0
 14 19  1  6  0  0  0
 16 20  1  1  0  0  0
 18 21  1  6  0  0  0
 17 22  1  1  0  0  0
 23 22  1  0  0  0  0
M  END
> <ID>
CHEBI:71422

> <NAME>
beta-D-Glcp-(1->6)-beta-D-Glcp

> <DEFINITION>
A glycosylglucose in which two β-D-glucose residues are linked (1→6).

> <STAR>
3

> <SYNONYM>
Glcbeta1-6Glcbeta; Glcb1-6Glcb; beta-gentiobiose; beta-D-glucosyl-(1->6)-beta-D-glucose; beta-D-Glc-(1->6)-beta-D-Glc; 6-O-beta-D-glucopyranosyl-beta-D-glucopyranose

> <IUPAC_NAME>
beta-D-glucopyranosyl-(1->6)-beta-D-glucopyranose

> <FORMULA>
C12H22O11

> <MASS>
342.29650

> <MONOISOTOPIC_MASS>
342.11621

> <CHARGE>
0

> <SMILES>
OC[C@H]1O[C@@H](OC[C@H]2O[C@@H](O)[C@H](O)[C@@H](O)[C@@H]2O)[C@H](O)[C@@H](O)[C@@H]1O

> <INCHI>
InChI=1S/C12H22O11/c13-1-3-5(14)8(17)10(19)12(23-3)21-2-4-6(15)7(16)9(18)11(20)22-4/h3-20H,1-2H2/t3-,4-,5-,6-,7+,8+,9-,10-,11-,12-/m1/s1

> <INCHIKEY>
DLRVVLDZNNYCBX-LIZSDCNHSA-N

> <CAS_REGISTRY_NUMBER>
554-91-6

> <KEGG_COMPOUND_ACCESSION>
C08240

> <PUBMED_CITATION>
19443021; 25568069; 31537530

$$$$

Marvin  12111216092D          

 34 35  0  0  1  0            999 V2000
   17.9495  -14.0449    0.0000 C   0  0  1  0  0  0  0  0  0  0  0  0
   17.9495  -14.8699    0.0000 C   0  0  1  0  0  0  0  0  0  0  0  0
   17.2349  -13.6324    0.0000 O   0  0  0  0  0  0  0  0  0  0  0  0
   17.2349  -15.2824    0.0000 C   0  0  2  0  0  0  0  0  0  0  0  0
   16.5205  -14.0449    0.0000 C   0  0  1  0  0  0  0  0  0  0  0  0
   16.5205  -14.8699    0.0000 C   0  0  1  0  0  0  0  0  0  0  0  0
   18.6639  -13.6323    0.0000 O   0  0  0  0  0  0  0  0  0  0  0  0
   18.6639  -15.2824    0.0000 N   0  0  0  0  0  0  0  0  0  0  0  0
   17.2349  -16.1074    0.0000 O   0  0  0  0  0  0  0  0  0  0  0  0
   15.8060  -15.2824    0.0000 O   0  0  0  0  0  0  0  0  0  0  0  0
   15.8060  -13.6324    0.0000 C   0  0  0  0  0  0  0  0  0  0  0  0
   18.6639  -16.1074    0.0000 C   0  0  0  0  0  0  0  0  0  0  0  0
   19.3783  -16.5199    0.0000 C   0  0  0  0  0  0  0  0  0  0  0  0
   17.9494  -16.5198    0.0000 O   0  0  0  0  0  0  0  0  0  0  0  0
   15.8060  -12.8074    0.0000 O   0  0  0  0  0  0  0  0  0  0  0  0
   15.0915  -14.8698    0.0000 C   0  0  1  0  0  0  0  0  0  0  0  0
   14.3770  -15.2823    0.0000 C   0  0  1  0  0  0  0  0  0  0  0  0
   15.0915  -14.0448    0.0000 O   0  0  0  0  0  0  0  0  0  0  0  0
   13.6626  -14.8698    0.0000 C   0  0  2  0  0  0  0  0  0  0  0  0
   14.3771  -13.6323    0.0000 C   0  0  1  0  0  0  0  0  0  0  0  0
   13.6626  -14.0448    0.0000 C   0  0  1  0  0  0  0  0  0  0  0  0
   14.3770  -16.1073    0.0000 N   0  0  0  0  0  0  0  0  0  0  0  0
   12.9481  -15.2822    0.0000 O   0  0  0  0  0  0  0  0  0  0  0  0
   12.9482  -13.6323    0.0000 O   0  0  0  0  0  0  0  0  0  0  0  0
   14.3771  -12.8073    0.0000 C   0  0  0  0  0  0  0  0  0  0  0  0
   13.6626  -12.3948    0.0000 O   0  0  0  0  0  0  0  0  0  0  0  0
   15.0915  -16.5199    0.0000 C   0  0  0  0  0  0  0  0  0  0  0  0
   15.0914  -17.3449    0.0000 C   0  0  0  0  0  0  0  0  0  0  0  0
   15.8059  -16.1074    0.0000 O   0  0  0  0  0  0  0  0  0  0  0  0
   12.2336  -14.8697    0.0000 C   0  0  0  0  0  0  0  0  0  0  0  0
   12.2337  -14.0447    0.0000 C   0  0  0  0  0  0  0  0  0  0  0  0
   11.5191  -15.2822    0.0000 C   0  0  0  0  0  0  0  0  0  0  0  0
   11.5190  -16.1072    0.0000 O   0  0  0  0  0  0  0  0  0  0  0  0
   10.8046  -14.8695    0.0000 O   0  0  0  0  0  0  0  0  0  0  0  0
  1  2  1  0  0  0  0
  1  3  1  0  0  0  0
  2  4  1  0  0  0  0
  3  5  1  0  0  0  0
  4  6  1  0  0  0  0
  5  6  1  0  0  0  0
  1  7  1  1  0  0  0
  2  8  1  6  0  0  0
  4  9  1  1  0  0  0
  6 10  1  6  0  0  0
  5 11  1  1  0  0  0
  8 12  1  0  0  0  0
 12 13  1  0  0  0  0
 12 14  2  0  0  0  0
 11 15  1  0  0  0  0
 16 17  1  0  0  0  0
 16 18  1  0  0  0  0
 17 19  1  0  0  0  0
 18 20  1  0  0  0  0
 19 21  1  0  0  0  0
 20 21  1  0  0  0  0
 16 10  1  1  0  0  0
 17 22  1  6  0  0  0
 19 23  1  1  0  0  0
 21 24  1  6  0  0  0
 20 25  1  1  0  0  0
 25 26  1  0  0  0  0
 22 27  1  0  0  0  0
 27 28  1  0  0  0  0
 27 29  2  0  0  0  0
 23 30  1  0  0  0  0
 30 31  1  0  0  0  0
 33 32  2  0  0  0  0
 34 32  1  0  0  0  0
 30 32  1  0  0  0  0
M  END
> <ID>
CHEBI:71424

> <NAME>
beta-D-Glcp3(1-carboxyEt)NAc-(1->4)-beta-D-GlcpNAc

> <DEFINITION>
An amino disaccharide consisting of N-acetyl-β-D-glucosamine, substituted on O-3 with a 1-carboxyethyl group and linked (1→4) to a second N-acetyl-β-D-glucosamine residue.

> <STAR>
3

> <SYNONYM>
N-acetyl-3-O-(1-carboxyethyl)-beta-D-glucosaminyl-(1->4)-N-acetyl-beta-D-glucosamine; HOOC(CH3)CH-3-O-GlcNAcbeta1-4GlcNAcbeta; 2-acetamido-4-O-[2-acetamido-3-O-(1-carboxyethyl)-2-deoxy-beta-D-glucopyranosyl]-2-deoxy-beta-D-glucopyranose

> <IUPAC_NAME>
2-acetamido-3-O-(1-carboxyethyl)-2-deoxy-beta-D-glucopyranosyl-(1->4)-2-acetamido-2-deoxy-beta-D-glucopyranose

> <FORMULA>
C19H32N2O13

> <MASS>
496.46300

> <MONOISOTOPIC_MASS>
496.19044

> <CHARGE>
0

> <SMILES>
CC(O[C@H]1[C@H](O)[C@@H](CO)O[C@@H](O[C@H]2[C@H](O)[C@@H](NC(C)=O)[C@H](O)O[C@@H]2CO)[C@@H]1NC(C)=O)C(O)=O

> <INCHI>
InChI=1S/C19H32N2O13/c1-6(17(28)29)31-16-12(21-8(3)25)19(33-9(4-22)13(16)26)34-15-10(5-23)32-18(30)11(14(15)27)20-7(2)24/h6,9-16,18-19,22-23,26-27,30H,4-5H2,1-3H3,(H,20,24)(H,21,25)(H,28,29)/t6?,9-,10-,11-,12-,13-,14-,15-,16-,18-,19+/m1/s1

> <INCHIKEY>
SJKBAJLKHOPUHW-NHFRPMDVSA-N

> <PUBMED_CITATION>
19443021

$$$$

Marvin  12121214592D          

 44 46  0  0  1  0            999 V2000
    8.8248  -16.6194    0.0000 C   0  0  1  0  0  0  0  0  0  0  0  0
    8.8248  -17.4444    0.0000 C   0  0  1  0  0  0  0  0  0  0  0  0
    8.1103  -16.2069    0.0000 O   0  0  0  0  0  0  0  0  0  0  0  0
    8.1103  -17.8569    0.0000 C   0  0  2  0  0  0  0  0  0  0  0  0
    7.3959  -16.6194    0.0000 C   0  0  1  0  0  0  0  0  0  0  0  0
    7.3959  -17.4444    0.0000 C   0  0  2  0  0  0  0  0  0  0  0  0
    9.5393  -16.2069    0.0000 O   0  0  0  0  0  0  0  0  0  0  0  0
    9.5393  -17.8569    0.0000 O   0  0  0  0  0  0  0  0  0  0  0  0
    8.1083  -18.7963    0.0000 O   0  0  0  0  0  0  0  0  0  0  0  0
    6.6814  -17.8569    0.0000 O   0  0  0  0  0  0  0  0  0  0  0  0
    6.6814  -16.2069    0.0000 C   0  0  0  0  0  0  0  0  0  0  0  0
    5.9669  -16.6194    0.0000 O   0  0  0  0  0  0  0  0  0  0  0  0
    6.6101  -19.1246    0.0000 O   0  0  0  0  0  0  0  0  0  0  0  0
    5.8956  -19.5371    0.0000 C   0  0  2  0  0  0  0  0  0  0  0  0
    5.8956  -20.3621    0.0000 C   0  0  1  0  0  0  0  0  0  0  0  0
    6.6101  -20.7746    0.0000 C   0  0  2  0  0  0  0  0  0  0  0  0
    7.3246  -20.3621    0.0000 C   0  0  0  0  0  0  0  0  0  0  0  0
    6.6100  -21.5994    0.0000 O   0  0  0  0  0  0  0  0  0  0  0  0
    5.1812  -19.1245    0.0000 C   0  0  1  0  0  0  0  0  0  0  0  0
    4.4668  -19.5370    0.0000 C   0  0  1  0  0  0  0  0  0  0  0  0
    5.1814  -18.2996    0.0000 O   0  0  0  0  0  0  0  0  0  0  0  0
    3.7524  -19.1245    0.0000 C   0  0  0  0  0  0  0  0  0  0  0  0
    4.4668  -20.3620    0.0000 O   0  0  0  0  0  0  0  0  0  0  0  0
    3.0380  -19.5369    0.0000 O   0  0  0  0  0  0  0  0  0  0  0  0
    5.8958  -18.7121    0.0000 H   0  0  0  0  0  0  0  0  0  0  0  0
    7.3246  -19.5371    0.0000 C   0  0  1  0  0  0  0  0  0  0  0  0
    5.1812  -20.7745    0.0000 O   0  0  0  0  0  0  0  0  0  0  0  0
    8.0390  -19.9496    0.0000 C   0  0  0  0  0  0  0  0  0  0  0  0
    8.7536  -19.5372    0.0000 O   0  0  0  0  0  0  0  0  0  0  0  0
    8.0390  -20.7747    0.0000 O   0  0  0  0  0  0  0  0  0  0  0  0
    8.1104  -15.3819    0.0000 O   0  0  0  0  0  0  0  0  0  0  0  0
   10.2538  -14.1444    0.0000 C   0  0  1  0  0  0  0  0  0  0  0  0
   10.2538  -14.9694    0.0000 C   0  0  1  0  0  0  0  0  0  0  0  0
    9.5393  -13.7319    0.0000 O   0  0  0  0  0  0  0  0  0  0  0  0
    9.5393  -15.3819    0.0000 C   0  0  2  0  0  0  0  0  0  0  0  0
    8.8248  -14.1444    0.0000 C   0  0  1  0  0  0  0  0  0  0  0  0
    8.8248  -14.9694    0.0000 C   0  0  1  0  0  0  0  0  0  0  0  0
   10.9683  -13.7319    0.0000 O   0  0  0  0  0  0  0  0  0  0  0  0
   10.9683  -15.3819    0.0000 N   0  0  0  0  0  0  0  0  0  0  0  0
    8.1104  -13.7319    0.0000 C   0  0  0  0  0  0  0  0  0  0  0  0
    7.3959  -14.1444    0.0000 O   0  0  0  0  0  0  0  0  0  0  0  0
   10.9683  -16.2069    0.0000 C   0  0  0  0  0  0  0  0  0  0  0  0
   11.6827  -16.6194    0.0000 C   0  0  0  0  0  0  0  0  0  0  0  0
   10.2538  -16.6194    0.0000 O   0  0  0  0  0  0  0  0  0  0  0  0
  1  2  1  0  0  0  0
  1  3  1  0  0  0  0
  2  4  1  0  0  0  0
  3  5  1  0  0  0  0
  4  6  1  0  0  0  0
  5  6  1  0  0  0  0
  1  7  1  1  0  0  0
  2  8  1  6  0  0  0
  4  9  1  1  0  0  0
  6 10  1  1  0  0  0
  5 11  1  1  0  0  0
 12 11  1  0  0  0  0
 14 13  1  0  0  0  0
 14 19  1  0  0  0  0
 14 25  1  1  0  0  0
 14 15  1  0  0  0  0
 15 27  1  1  0  0  0
 15 16  1  0  0  0  0
 16 18  1  6  0  0  0
 16 17  1  0  0  0  0
 26 13  1  0  0  0  0
 26 17  1  0  0  0  0
 19 20  1  0  0  0  0
 19 21  1  1  0  0  0
 20 22  1  0  0  0  0
 20 23  1  6  0  0  0
 22 24  1  0  0  0  0
 26  9  1  6  0  0  0
 29 28  2  0  0  0  0
 30 28  1  0  0  0  0
 26 28  1  0  0  0  0
 32 33  1  0  0  0  0
 32 34  1  0  0  0  0
 33 35  1  0  0  0  0
 34 36  1  0  0  0  0
 35 37  1  0  0  0  0
 36 37  1  0  0  0  0
 32 38  1  1  0  0  0
 33 39  1  6  0  0  0
 35  7  1  1  0  0  0
 37 31  1  6  0  0  0
 36 40  1  1  0  0  0
 41 40  1  0  0  0  0
 39 42  1  0  0  0  0
 42 43  1  0  0  0  0
 42 44  2  0  0  0  0
M  END
> <ID>
CHEBI:71438

> <NAME>
alpha-KDN-(2->3)-beta-D-Galp-(1->3)-beta-D-GlcpNAc

> <DEFINITION>
A linear amino trisaccharide consisting of α-KDN, β-D-galactose and N-acetyl-β-D-glucosamine residues linked sequentially (2→3) and (1→3).

> <STAR>
3

> <SYNONYM>
KDNalpha2-3Galbeta1-3GlcNAcbeta; KDNa2-3Galb1-3GlcNAcb; deamino-alpha-neuraminyl-(2->3)-beta-D-galactosyl-(1->3)-N-acetyl-beta-D-glucosamine; alpha-KDN-(2->3)-beta-D-Gal-(1->3)-beta-D-GlcNAc; (6R)-3-deoxy-6-[(1R,2R)-1,2,3-trihydroxypropyl]-beta-L-threo-hex-2-ulopyranonosyl-(2->3)-beta-D-galactopyranosyl-(1->3)-2-acetamido-2-deoxy-beta-D-glucopyranose

> <IUPAC_NAME>
3-deoxy-D-glycero-alpha-D-galacto-non-2-ulopyranosonyl-(2->3)-beta-D-galactopyranosyl-(1->3)-2-acetamido-2-deoxy-beta-D-glucopyranose

> <FORMULA>
C23H39NO19

> <MASS>
633.55110

> <MONOISOTOPIC_MASS>
633.21163

> <CHARGE>
0

> <SMILES>
[H][C@]1(O[C@@](C[C@H](O)[C@H]1O)(O[C@H]1[C@@H](O)[C@@H](CO)O[C@@H](O[C@H]2[C@H](O)[C@@H](CO)O[C@@H](O)[C@@H]2NC(C)=O)[C@@H]1O)C(O)=O)[C@H](O)[C@H](O)CO

> <INCHI>
InChI=1S/C23H39NO19/c1-6(28)24-11-17(14(33)9(4-26)39-20(11)36)41-21-16(35)19(15(34)10(5-27)40-21)43-23(22(37)38)2-7(29)12(31)18(42-23)13(32)8(30)3-25/h7-21,25-27,29-36H,2-5H2,1H3,(H,24,28)(H,37,38)/t7-,8+,9+,10+,11+,12+,13+,14+,15-,16+,17+,18+,19-,20+,21-,23-/m0/s1

> <INCHIKEY>
UOKYHGGASIPMNN-UYCGUTEDSA-N

> <PUBMED_CITATION>
19443021; 25568069; 31537530

$$$$

Marvin  12181211572D          

 45 48  0  0  1  0            999 V2000
   27.0844  -49.8552    0.0000 C   0  0  2  0  0  0  0  0  0  0  0  0
   27.0844  -50.6802    0.0000 C   0  0  2  0  0  0  0  0  0  0  0  0
   26.3698  -49.4427    0.0000 O   0  0  0  0  0  0  0  0  0  0  0  0
   26.3698  -51.0927    0.0000 C   0  0  2  0  0  0  0  0  0  0  0  0
   25.6554  -49.8552    0.0000 C   0  0  1  0  0  0  0  0  0  0  0  0
   25.6554  -50.6802    0.0000 C   0  0  1  0  0  0  0  0  0  0  0  0
   27.7988  -49.4426    0.0000 O   0  0  0  0  0  0  0  0  0  0  0  0
   27.7988  -51.0927    0.0000 O   0  0  0  0  0  0  0  0  0  0  0  0
   26.3698  -51.9177    0.0000 O   0  0  0  0  0  0  0  0  0  0  0  0
   24.9408  -51.0926    0.0000 O   0  0  0  0  0  0  0  0  0  0  0  0
   24.9408  -49.4427    0.0000 C   0  0  0  0  0  0  0  0  0  0  0  0
   25.6554  -52.3302    0.0000 C   0  0  2  0  0  0  0  0  0  0  0  0
   25.6554  -53.1552    0.0000 C   0  0  2  0  0  0  0  0  0  0  0  0
   24.9408  -51.9177    0.0000 O   0  0  0  0  0  0  0  0  0  0  0  0
   24.9408  -53.5677    0.0000 C   0  0  2  0  0  0  0  0  0  0  0  0
   24.2263  -52.3302    0.0000 C   0  0  1  0  0  0  0  0  0  0  0  0
   24.2263  -53.1552    0.0000 C   0  0  1  0  0  0  0  0  0  0  0  0
   26.3698  -53.5677    0.0000 O   0  0  0  0  0  0  0  0  0  0  0  0
   24.9407  -54.3927    0.0000 O   0  0  0  0  0  0  0  0  0  0  0  0
   23.5119  -53.5677    0.0000 O   0  0  0  0  0  0  0  0  0  0  0  0
   23.5119  -51.9177    0.0000 C   0  0  0  0  0  0  0  0  0  0  0  0
   22.7975  -52.3302    0.0000 O   0  0  0  0  0  0  0  0  0  0  0  0
   26.3698  -54.3927    0.0000 C   0  0  2  0  0  0  0  0  0  0  0  0
   27.0842  -54.8052    0.0000 C   0  0  2  0  0  0  0  0  0  0  0  0
   25.6551  -54.8052    0.0000 O   0  0  0  0  0  0  0  0  0  0  0  0
   27.0842  -55.6302    0.0000 C   0  0  2  0  0  0  0  0  0  0  0  0
   25.6551  -55.6302    0.0000 C   0  0  1  0  0  0  0  0  0  0  0  0
   26.3698  -56.0427    0.0000 C   0  0  1  0  0  0  0  0  0  0  0  0
   27.7988  -54.3927    0.0000 O   0  0  0  0  0  0  0  0  0  0  0  0
   27.7986  -56.0427    0.0000 O   0  0  0  0  0  0  0  0  0  0  0  0
   26.3698  -56.8677    0.0000 O   0  0  0  0  0  0  0  0  0  0  0  0
   24.9408  -56.0427    0.0000 C   0  0  0  0  0  0  0  0  0  0  0  0
   24.9408  -56.8677    0.0000 O   0  0  0  0  0  0  0  0  0  0  0  0
   24.9408  -48.6177    0.0000 O   0  0  0  0  0  0  0  0  0  0  0  0
   28.5132  -54.8052    0.0000 C   0  0  2  0  0  0  0  0  0  0  0  0
   29.2277  -54.3927    0.0000 C   0  0  2  0  0  0  0  0  0  0  0  0
   28.5132  -55.6302    0.0000 O   0  0  0  0  0  0  0  0  0  0  0  0
   29.9421  -54.8053    0.0000 C   0  0  2  0  0  0  0  0  0  0  0  0
   29.2276  -56.0427    0.0000 C   0  0  1  0  0  0  0  0  0  0  0  0
   29.9421  -55.6303    0.0000 C   0  0  1  0  0  0  0  0  0  0  0  0
   29.2277  -53.5677    0.0000 O   0  0  0  0  0  0  0  0  0  0  0  0
   30.6567  -54.3928    0.0000 O   0  0  0  0  0  0  0  0  0  0  0  0
   30.6565  -56.0428    0.0000 O   0  0  0  0  0  0  0  0  0  0  0  0
   29.2276  -56.8677    0.0000 C   0  0  0  0  0  0  0  0  0  0  0  0
   29.9421  -57.2803    0.0000 O   0  0  0  0  0  0  0  0  0  0  0  0
  1  2  1  0  0  0  0
  1  3  1  0  0  0  0
  2  4  1  0  0  0  0
  3  5  1  0  0  0  0
  4  6  1  0  0  0  0
  5  6  1  0  0  0  0
  1  7  1  6  0  0  0
  2  8  1  1  0  0  0
  4  9  1  1  0  0  0
  6 10  1  6  0  0  0
  5 11  1  1  0  0  0
 12 13  1  0  0  0  0
 12 14  1  0  0  0  0
 13 15  1  0  0  0  0
 14 16  1  0  0  0  0
 15 17  1  0  0  0  0
 16 17  1  0  0  0  0
 12  9  1  6  0  0  0
 13 18  1  1  0  0  0
 15 19  1  1  0  0  0
 17 20  1  6  0  0  0
 16 21  1  1  0  0  0
 22 21  1  0  0  0  0
 23 24  1  0  0  0  0
 23 25  1  0  0  0  0
 24 26  1  0  0  0  0
 25 27  1  0  0  0  0
 26 28  1  0  0  0  0
 27 28  1  0  0  0  0
 23 18  1  6  0  0  0
 24 29  1  1  0  0  0
 26 30  1  1  0  0  0
 28 31  1  6  0  0  0
 27 32  1  1  0  0  0
 33 32  1  0  0  0  0
 11 34  1  0  0  0  0
 35 36  1  0  0  0  0
 35 37  1  0  0  0  0
 36 38  1  0  0  0  0
 37 39  1  0  0  0  0
 38 40  1  0  0  0  0
 39 40  1  0  0  0  0
 36 41  1  1  0  0  0
 38 42  1  1  0  0  0
 40 43  1  6  0  0  0
 39 44  1  1  0  0  0
 45 44  1  0  0  0  0
 35 29  1  6  0  0  0
M  END
> <ID>
CHEBI:71475

> <NAME>
alpha-D-Manp-(1->2)-alpha-D-Manp-(1->2)-alpha-D-Manp-(1->3)-alpha-D-Manp

> <DEFINITION>
An α-D-Manp-(1→2)-α-D-Manp-(1→2)-α-D-Manp-(1→3)-D-Manp in which the carbon bearing the anomeric hydroxy group has α- configuration.

> <STAR>
3

> <SYNONYM>
Manalpha1-2Manalpha1-2Manalpha1-3Manalpha; Mana1-2Mana1-2Mana1-3Mana; alpha-D-mannosyl-(1->2)-alpha-D-mannosyl-(1->2)-alpha-D-mannosyl-(1->3)-alpha-D-mannose; alpha-D-Man-(1->2)-alpha-D-Man-(1->2)-alpha-D-Man-(1->3)-alpha-D-Man

> <IUPAC_NAME>
alpha-D-mannopyranosyl-(1->2)-alpha-D-mannopyranosyl-(1->2)-alpha-D-mannopyranosyl-(1->3)-alpha-D-mannopyranose

> <FORMULA>
C24H42O21

> <MASS>
666.57770

> <MONOISOTOPIC_MASS>
666.22186

> <CHARGE>
0

> <SMILES>
OC[C@H]1O[C@H](O[C@H]2[C@@H](O)[C@H](O)[C@@H](CO)O[C@@H]2O[C@H]2[C@@H](O)[C@H](O)[C@@H](CO)O[C@@H]2O[C@@H]2[C@H](O)[C@@H](O)O[C@H](CO)[C@H]2O)[C@@H](O)[C@@H](O)[C@@H]1O

> <INCHI>
InChI=1S/C24H42O21/c25-1-5-9(29)13(33)16(36)22(40-5)44-19-14(34)10(30)7(3-27)42-24(19)45-20-15(35)11(31)6(2-26)41-23(20)43-18-12(32)8(4-28)39-21(38)17(18)37/h5-38H,1-4H2/t5-,6-,7-,8-,9-,10-,11-,12-,13+,14+,15+,16+,17+,18+,19+,20+,21+,22-,23-,24-/m1/s1

> <INCHIKEY>
UZWXUGRXLQVMOY-YCPSAUHXSA-N

> <REAXYS_REGISTRY_NUMBER>
21055502

> <PUBMED_CITATION>
19443021; 25568069; 31537530

$$$$

Marvin  12181214152D          

 34 36  0  0  1  0            999 V2000
   12.0235  -19.5117    0.0000 C   0  0  2  0  0  0  0  0  0  0  0  0
   12.0235  -20.3367    0.0000 C   0  0  2  0  0  0  0  0  0  0  0  0
   11.3091  -19.0992    0.0000 O   0  0  0  0  0  0  0  0  0  0  0  0
   11.3091  -20.7492    0.0000 C   0  0  2  0  0  0  0  0  0  0  0  0
   10.5946  -19.5117    0.0000 C   0  0  1  0  0  0  0  0  0  0  0  0
   10.5946  -20.3367    0.0000 C   0  0  1  0  0  0  0  0  0  0  0  0
   12.7380  -19.0992    0.0000 O   0  0  0  0  0  0  0  0  0  0  0  0
   12.7380  -20.7492    0.0000 O   0  0  0  0  0  0  0  0  0  0  0  0
   11.3090  -21.5742    0.0000 O   0  0  0  0  0  0  0  0  0  0  0  0
    9.8802  -20.7492    0.0000 O   0  0  0  0  0  0  0  0  0  0  0  0
    9.8802  -19.0992    0.0000 C   0  0  0  0  0  0  0  0  0  0  0  0
   10.5946  -21.9867    0.0000 C   0  0  2  0  0  0  0  0  0  0  0  0
   10.5946  -22.8117    0.0000 C   0  0  2  0  0  0  0  0  0  0  0  0
    9.8800  -21.5742    0.0000 O   0  0  0  0  0  0  0  0  0  0  0  0
    9.8800  -23.2242    0.0000 C   0  0  2  0  0  0  0  0  0  0  0  0
    9.1656  -21.9867    0.0000 C   0  0  1  0  0  0  0  0  0  0  0  0
    9.1656  -22.8117    0.0000 C   0  0  1  0  0  0  0  0  0  0  0  0
   11.3090  -23.2242    0.0000 O   0  0  0  0  0  0  0  0  0  0  0  0
    9.8800  -24.0492    0.0000 O   0  0  0  0  0  0  0  0  0  0  0  0
    8.4511  -23.2242    0.0000 O   0  0  0  0  0  0  0  0  0  0  0  0
    8.4511  -21.5742    0.0000 C   0  0  0  0  0  0  0  0  0  0  0  0
    7.7366  -21.9868    0.0000 O   0  0  0  0  0  0  0  0  0  0  0  0
   11.3090  -24.0492    0.0000 C   0  0  2  0  0  0  0  0  0  0  0  0
   12.0235  -24.4618    0.0000 C   0  0  2  0  0  0  0  0  0  0  0  0
   10.5946  -24.4618    0.0000 O   0  0  0  0  0  0  0  0  0  0  0  0
   12.0235  -25.2868    0.0000 C   0  0  2  0  0  0  0  0  0  0  0  0
   10.5946  -25.2868    0.0000 C   0  0  1  0  0  0  0  0  0  0  0  0
   11.3090  -25.6993    0.0000 C   0  0  1  0  0  0  0  0  0  0  0  0
   12.7380  -24.0493    0.0000 O   0  0  0  0  0  0  0  0  0  0  0  0
   12.7379  -25.6994    0.0000 O   0  0  0  0  0  0  0  0  0  0  0  0
   11.3090  -26.5243    0.0000 O   0  0  0  0  0  0  0  0  0  0  0  0
    9.8800  -25.6993    0.0000 C   0  0  0  0  0  0  0  0  0  0  0  0
    9.8800  -26.5243    0.0000 O   0  0  0  0  0  0  0  0  0  0  0  0
    9.1656  -19.5117    0.0000 O   0  0  0  0  0  0  0  0  0  0  0  0
  1  2  1  0  0  0  0
  1  3  1  0  0  0  0
  2  4  1  0  0  0  0
  3  5  1  0  0  0  0
  4  6  1  0  0  0  0
  5  6  1  0  0  0  0
  1  7  1  6  0  0  0
  2  8  1  1  0  0  0
  4  9  1  1  0  0  0
  6 10  1  6  0  0  0
  5 11  1  1  0  0  0
 12 13  1  0  0  0  0
 12 14  1  0  0  0  0
 13 15  1  0  0  0  0
 14 16  1  0  0  0  0
 15 17  1  0  0  0  0
 16 17  1  0  0  0  0
 12  9  1  6  0  0  0
 13 18  1  1  0  0  0
 15 19  1  1  0  0  0
 17 20  1  6  0  0  0
 16 21  1  1  0  0  0
 22 21  1  0  0  0  0
 23 24  1  0  0  0  0
 23 25  1  0  0  0  0
 24 26  1  0  0  0  0
 25 27  1  0  0  0  0
 26 28  1  0  0  0  0
 27 28  1  0  0  0  0
 23 18  1  6  0  0  0
 24 29  1  1  0  0  0
 26 30  1  1  0  0  0
 28 31  1  6  0  0  0
 27 32  1  1  0  0  0
 33 32  1  0  0  0  0
 11 34  1  0  0  0  0
M  END
> <ID>
CHEBI:71479

> <NAME>
alpha-D-Manp-(1->2)-alpha-D-Manp-(1->3)-alpha-D-Manp

> <DEFINITION>
A linear mannotriose in which three α-D-mannose residues are linked in sequence (1→2) and (1→3).

> <STAR>
3

> <SYNONYM>
Manalpha1-2Manalpha1-3Manalpha; Mana1-2Mana1-3Mana; alpha-D-mannosyl-(1->2)-alpha-D-mannosyl-(1->3)-alpha-D-mannose; alpha-D-Man-(1->2)-alpha-D-Man-(1->3)-alpha-D-Man

> <IUPAC_NAME>
alpha-D-mannopyranosyl-(1->2)-alpha-D-mannopyranosyl-(1->3)-alpha-D-mannopyranose

> <FORMULA>
C18H32O16

> <MASS>
504.43710

> <MONOISOTOPIC_MASS>
504.16903

> <CHARGE>
0

> <SMILES>
OC[C@H]1O[C@H](O[C@H]2[C@@H](O)[C@H](O)[C@@H](CO)O[C@@H]2O[C@@H]2[C@H](O)[C@@H](O)O[C@H](CO)[C@H]2O)[C@@H](O)[C@@H](O)[C@@H]1O

> <INCHI>
InChI=1S/C18H32O16/c19-1-4-7(22)10(25)12(27)17(31-4)34-15-11(26)8(23)5(2-20)32-18(15)33-14-9(24)6(3-21)30-16(29)13(14)28/h4-29H,1-3H2/t4-,5-,6-,7-,8-,9-,10+,11+,12+,13+,14+,15+,16+,17-,18-/m1/s1

> <INCHIKEY>
JJWHEUWGMUSEKK-NAVBLJQLSA-N

> <PUBMED_CITATION>
19443021; 25568069; 29150603; 31537530

$$$$

Marvin  01031317242D          

 31 34  0  0  1  0            999 V2000
   11.4693  -11.0083    0.0000 C   0  0  0  0  0  0  0  0  0  0  0  0
   11.4693  -11.8333    0.0000 C   0  0  0  0  0  0  0  0  0  0  0  0
   10.7548  -10.5958    0.0000 C   0  0  1  0  0  0  0  0  0  0  0  0
   10.7548  -12.2458    0.0000 C   0  0  2  0  0  0  0  0  0  0  0  0
   10.0403  -11.0083    0.0000 C   0  0  0  0  0  0  0  0  0  0  0  0
   10.0403  -11.8333    0.0000 C   0  0  0  0  0  0  0  0  0  0  0  0
   10.4765  -11.0629    0.0000 C   0  0  0  0  0  0  0  0  0  0  0  0
   10.4765  -11.6394    0.0000 C   0  0  0  0  0  0  0  0  0  0  0  0
   10.7548   -9.7708    0.0000 N   0  0  0  0  0  0  0  0  0  0  0  0
   10.0403   -9.3583    0.0000 C   0  0  0  0  0  0  0  0  0  0  0  0
   10.0403   -8.5333    0.0000 O   0  0  0  0  0  0  0  0  0  0  0  0
    9.3258   -9.7708    0.0000 O   0  0  0  0  0  0  0  0  0  0  0  0
    8.6113   -9.3583    0.0000 C   0  0  0  0  0  0  0  0  0  0  0  0
    7.8969   -9.7709    0.0000 C   0  0  0  0  0  0  0  0  0  0  0  0
    7.1824   -9.3584    0.0000 O   0  0  0  0  0  0  0  0  0  0  0  0
    7.8969  -10.5959    0.0000 O   0  0  0  0  0  0  0  0  0  0  0  0
   12.2539  -10.7533    0.0000 C   0  0  0  0  0  0  0  0  0  0  0  0
   12.7388  -11.4208    0.0000 N   0  0  0  0  0  0  0  0  0  0  0  0
   12.2540  -12.0882    0.0000 C   0  0  0  0  0  0  0  0  0  0  0  0
   12.5089   -9.9687    0.0000 O   0  0  0  0  0  0  0  0  0  0  0  0
   12.5090  -12.8729    0.0000 O   0  0  0  0  0  0  0  0  0  0  0  0
   13.5638  -11.4207    0.0000 C   0  0  0  0  0  0  0  0  0  0  0  0
   13.9763  -10.7063    0.0000 C   0  0  0  0  0  0  0  0  0  0  0  0
   13.9764  -12.1352    0.0000 C   0  0  0  0  0  0  0  0  0  0  0  0
   14.8013  -10.7063    0.0000 C   0  0  0  0  0  0  0  0  0  0  0  0
   14.8014  -12.1352    0.0000 C   0  0  0  0  0  0  0  0  0  0  0  0
   15.2139  -11.4207    0.0000 C   0  0  0  0  0  0  0  0  0  0  0  0
   16.0389  -11.4207    0.0000 N   0  0  0  0  0  0  0  0  0  0  0  0
   16.4513  -10.7061    0.0000 C   0  0  0  0  0  0  0  0  0  0  0  0
   17.2763  -10.7061    0.0000 C   0  0  0  0  0  0  0  0  0  0  0  0
   16.0388   -9.9917    0.0000 O   0  0  0  0  0  0  0  0  0  0  0  0
  3  1  1  0  0  0  0
  4  2  1  0  0  0  0
  5  3  1  0  0  0  0
  6  4  1  0  0  0  0
  6  5  1  0  0  0  0
  3  7  1  1  0  0  0
  4  8  1  1  0  0  0
  7  8  1  0  0  0  0
  3  9  1  1  0  0  0
  9 10  1  0  0  0  0
 10 11  2  0  0  0  0
 10 12  1  0  0  0  0
 12 13  1  0  0  0  0
 13 14  1  0  0  0  0
 14 15  1  0  0  0  0
 14 16  2  0  0  0  0
 17  1  1  0  0  0  0
  2  1  1  0  0  0  0
 18 17  1  0  0  0  0
 19  2  1  0  0  0  0
 19 18  1  0  0  0  0
 17 20  2  0  0  0  0
 19 21  2  0  0  0  0
 23 22  1  0  0  0  0
 24 22  2  0  0  0  0
 25 23  2  0  0  0  0
 26 24  1  0  0  0  0
 27 25  1  0  0  0  0
 27 26  2  0  0  0  0
 18 22  1  0  0  0  0
 27 28  1  0  0  0  0
 28 29  1  0  0  0  0
 29 30  1  0  0  0  0
 29 31  2  0  0  0  0
M  END
> <ID>
CHEBI:71523

> <NAME>
{[(1r,7r)-4-(4-acetamidophenyl)-3,5-dioxo-4-azatricyclo[5.2.2.0(2,6)]undec-1-yl]carbamoyloxy}acetic acid

> <DEFINITION>
A dicarboximide of bicyclo[2.2.2]octene, in which the nitrogen is substituted by a 4-acetamidophenyl group and one bridgehead is substituted by a 1-(carboxymethoxy)carboxamido group.

> <STAR>
3

> <IUPAC_NAME>
{[(1r,7r)-4-(4-acetamidophenyl)-3,5-dioxo-4-azatricyclo[5.2.2.0(2,6)]undec-1-yl]carbamoyloxy}acetic acid

> <FORMULA>
C21H23N3O7

> <MASS>
429.42320

> <MONOISOTOPIC_MASS>
429.15360

> <CHARGE>
0

> <SMILES>
CC(=O)Nc1ccc(cc1)N1C(=O)C2[C@H]3CC[C@@](CC3)(NC(=O)OCC(O)=O)C2C1=O

> <INCHI>
InChI=1S/C21H23N3O7/c1-11(25)22-13-2-4-14(5-3-13)24-18(28)16-12-6-8-21(9-7-12,17(16)19(24)29)23-20(30)31-10-15(26)27/h2-5,12,16-17H,6-10H2,1H3,(H,22,25)(H,23,30)(H,26,27)/t12-,16?,17?,21-

> <INCHIKEY>
WBCOLMYVEBTZOA-BYGYDQHBSA-N

> <PUBMED_CITATION>
9506942

$$$$

Marvin  01081316312D          

 36 37  0  0  1  0            999 V2000
   10.7618   -5.1139    0.0000 O   0  0  0  0  0  0  0  0  0  0  0  0
   10.0474   -5.5263    0.0000 C   0  0  2  0  0  0  0  0  0  0  0  0
   10.0474   -6.3513    0.0000 C   0  0  1  0  0  0  0  0  0  0  0  0
    9.3328   -5.1139    0.0000 O   0  0  0  0  0  0  0  0  0  0  0  0
    9.3328   -6.7638    0.0000 C   0  0  2  0  0  0  0  0  0  0  0  0
    8.6184   -5.5263    0.0000 C   0  0  1  0  0  0  0  0  0  0  0  0
    8.6184   -6.3513    0.0000 C   0  0  2  0  0  0  0  0  0  0  0  0
    9.3328   -7.5192    0.0000 O   0  0  0  0  0  0  0  0  0  0  0  0
    7.9039   -6.7638    0.0000 O   0  0  0  0  0  0  0  0  0  0  0  0
    7.9039   -5.1139    0.0000 C   0  0  0  0  0  0  0  0  0  0  0  0
    7.1895   -5.5263    0.0000 O   0  0  0  0  0  0  0  0  0  0  0  0
   10.7618   -7.5888    0.0000 C   0  0  0  0  0  0  0  0  0  0  0  0
   10.0473   -8.0013    0.0000 O   0  0  0  0  0  0  0  0  0  0  0  0
   10.7618   -6.7638    0.0000 N   0  0  0  0  0  0  0  0  0  0  0  0
   11.4762   -8.0013    0.0000 C   0  0  0  0  0  0  0  0  0  0  0  0
    6.4751   -5.9388    0.0000 C   0  0  1  0  0  0  0  0  0  0  0  0
    6.4751   -6.7639    0.0000 C   0  0  0  0  0  0  0  0  0  0  0  0
    5.7605   -7.1763    0.0000 C   0  0  1  0  0  0  0  0  0  0  0  0
    5.0461   -6.7638    0.0000 C   0  0  2  0  0  0  0  0  0  0  0  0
    5.7605   -5.5263    0.0000 O   0  0  0  0  0  0  0  0  0  0  0  0
    5.0461   -5.9388    0.0000 C   0  0  1  0  0  0  0  0  0  0  0  0
    5.7726   -8.0460    0.0000 O   0  0  0  0  0  0  0  0  0  0  0  0
    6.4751   -5.1139    0.0000 C   0  0  0  0  0  0  0  0  0  0  0  0
    5.7605   -4.7013    0.0000 O   0  0  0  0  0  0  0  0  0  0  0  0
    7.1897   -4.7013    0.0000 O   0  0  0  0  0  0  0  0  0  0  0  0
    4.3316   -7.1762    0.0000 N   0  0  0  0  0  0  0  0  0  0  0  0
    4.3315   -8.0013    0.0000 C   0  0  0  0  0  0  0  0  0  0  0  0
    3.6170   -8.4138    0.0000 C   0  0  0  0  0  0  0  0  0  0  0  0
    5.0460   -8.4138    0.0000 O   0  0  0  0  0  0  0  0  0  0  0  0
    4.3317   -5.5263    0.0000 C   0  0  2  0  0  0  0  0  0  0  0  0
    4.3317   -4.7013    0.0000 O   0  0  0  0  0  0  0  0  0  0  0  0
    3.6173   -5.9387    0.0000 C   0  0  1  0  0  0  0  0  0  0  0  0
    2.9028   -5.5262    0.0000 C   0  0  0  0  0  0  0  0  0  0  0  0
    3.6172   -6.7637    0.0000 O   0  0  0  0  0  0  0  0  0  0  0  0
    2.1883   -5.9387    0.0000 O   0  0  0  0  0  0  0  0  0  0  0  0
    5.0461   -5.1186    0.0000 H   0  0  0  0  0  0  0  0  0  0  0  0
  2  3  1  0  0  0  0
  2  4  1  0  0  0  0
  3  5  1  0  0  0  0
  4  6  1  0  0  0  0
  5  7  1  0  0  0  0
  6  7  1  0  0  0  0
  2  1  1  6  0  0  0
  5  8  1  1  0  0  0
  7  9  1  1  0  0  0
  6 10  1  1  0  0  0
 11 10  1  0  0  0  0
 13 12  2  0  0  0  0
 14 12  1  0  0  0  0
 15 12  1  0  0  0  0
  3 14  1  6  0  0  0
 18 17  1  0  0  0  0
 16 17  1  0  0  0  0
 19 18  1  0  0  0  0
 20 16  1  0  0  0  0
 21 19  1  0  0  0  0
 21 20  1  0  0  0  0
 18 22  1  6  0  0  0
 16 11  1  1  0  0  0
 24 23  2  0  0  0  0
 25 23  1  0  0  0  0
 16 23  1  6  0  0  0
 19 26  1  1  0  0  0
 26 27  1  0  0  0  0
 27 28  1  0  0  0  0
 27 29  2  0  0  0  0
 21 30  1  0  0  0  0
 30 31  1  1  0  0  0
 30 32  1  0  0  0  0
 32 33  1  0  0  0  0
 32 34  1  6  0  0  0
 33 35  1  0  0  0  0
 21 36  1  1  0  0  0
M  END
> <ID>
CHEBI:71557

> <NAME>
N-acetyl-beta-neuraminyl-(2->6)-N-acetyl-alpha-D-galactosamine

> <DEFINITION>
An amino disaccharide composed of N-acetylneuraminic acid and N-acetyl-α-D-galactosamine residues linked (2→6).

> <STAR>
3

> <SYNONYM>
Neu5Acbeta2-6GalNAcalpha; Neu5Acb2-6GalNAca; beta-N-acetylneuraminyl-(2->6)-N-acetyl-alpha-D-galactosamine

> <IUPAC_NAME>
5-acetamido-3,5-dideoxy-D-glycero-alpha-D-galacto-non-2-ulopyranonosyl-(2->6)-2-acetamido-2-deoxy-alpha-D-galactopyranose; (5-acetamido-3,5-dideoxy-D-glycero-beta-D-galacto-nonulopyranosylonic acid)-(2->6)-2-acetamido-2-deoxy-alpha-D-galactopyranose

> <FORMULA>
C19H32N2O14

> <MASS>
512.46240

> <MONOISOTOPIC_MASS>
512.18535

> <CHARGE>
0

> <SMILES>
[H][C@]1(O[C@](C[C@H](O)[C@H]1NC(C)=O)(OC[C@H]1O[C@H](O)[C@H](NC(C)=O)[C@@H](O)[C@H]1O)C(O)=O)[C@H](O)[C@H](O)CO

> <INCHI>
InChI=1S/C19H32N2O14/c1-6(23)20-11-8(25)3-19(18(31)32,35-16(11)13(27)9(26)4-22)33-5-10-14(28)15(29)12(17(30)34-10)21-7(2)24/h8-17,22,25-30H,3-5H2,1-2H3,(H,20,23)(H,21,24)(H,31,32)/t8-,9+,10+,11+,12+,13+,14-,15+,16+,17-,19-/m0/s1

> <INCHIKEY>
CZOGCRVBCLRHQJ-NAFGUXDZSA-N

> <PUBMED_CITATION>
19443021; 25568069; 31537530

$$$$

Marvin  01151317362D          

 47 49  0  0  1  0            999 V2000
   11.4593  -15.4669    0.0000 O   0  0  0  0  0  0  0  0  0  0  0  0
   10.7447  -15.9067    0.0000 C   0  0  1  0  0  0  0  0  0  0  0  0
   10.7447  -16.7312    0.0000 C   0  0  1  0  0  0  0  0  0  0  0  0
   10.0299  -15.4944    0.0000 O   0  0  0  0  0  0  0  0  0  0  0  0
   10.0299  -17.1436    0.0000 C   0  0  2  0  0  0  0  0  0  0  0  0
   11.4593  -17.1436    0.0000 N   0  0  0  0  0  0  0  0  0  0  0  0
    9.3153  -15.9067    0.0000 C   0  0  1  0  0  0  0  0  0  0  0  0
    9.3153  -16.7312    0.0000 C   0  0  1  0  0  0  0  0  0  0  0  0
   10.0299  -17.9132    0.0000 O   0  0  0  0  0  0  0  0  0  0  0  0
   11.4593  -17.9407    0.0000 C   0  0  0  0  0  0  0  0  0  0  0  0
    8.6008  -15.5220    0.0000 C   0  0  0  0  0  0  0  0  0  0  0  0
    8.6008  -17.1436    0.0000 O   0  0  0  0  0  0  0  0  0  0  0  0
   12.1739  -18.3530    0.0000 C   0  0  0  0  0  0  0  0  0  0  0  0
   10.7447  -18.3530    0.0000 O   0  0  0  0  0  0  0  0  0  0  0  0
    7.9135  -15.9618    0.0000 O   0  0  0  0  0  0  0  0  0  0  0  0
    9.3153  -18.3255    0.0000 C   0  0  2  0  0  0  0  0  0  0  0  0
    8.6008  -17.9132    0.0000 O   0  0  0  0  0  0  0  0  0  0  0  0
    7.8861  -18.3255    0.0000 C   0  0  1  0  0  0  0  0  0  0  0  0
    7.8861  -19.1499    0.0000 C   0  0  1  0  0  0  0  0  0  0  0  0
    8.6008  -19.5623    0.0000 C   0  0  1  0  0  0  0  0  0  0  0  0
    9.3153  -19.1499    0.0000 C   0  0  1  0  0  0  0  0  0  0  0  0
    7.1990  -17.9132    0.0000 C   0  0  0  0  0  0  0  0  0  0  0  0
    7.2264  -19.5897    0.0000 O   0  0  0  0  0  0  0  0  0  0  0  0
    8.6008  -20.3869    0.0000 O   0  0  0  0  0  0  0  0  0  0  0  0
   10.0299  -19.5623    0.0000 O   0  0  0  0  0  0  0  0  0  0  0  0
    6.4844  -18.3255    0.0000 O   0  0  0  0  0  0  0  0  0  0  0  0
    7.6113  -20.9915    0.0000 C   0  0  1  0  0  0  0  0  0  0  0  0
    6.9240  -20.5794    0.0000 O   0  0  0  0  0  0  0  0  0  0  0  0
    7.6113  -21.8161    0.0000 C   0  0  0  0  0  0  0  0  0  0  0  0
    8.2984  -21.3488    0.0000 C   0  0  0  0  0  0  0  0  0  0  0  0
    6.2095  -20.9915    0.0000 C   0  0  2  0  0  0  0  0  0  0  0  0
    6.9240  -22.2285    0.0000 C   0  0  1  0  0  0  0  0  0  0  0  0
    8.9855  -20.9366    0.0000 O   0  0  0  0  0  0  0  0  0  0  0  0
    6.2095  -21.8161    0.0000 C   0  0  1  0  0  0  0  0  0  0  0  0
    6.9240  -22.9980    0.0000 O   0  0  0  0  0  0  0  0  0  0  0  0
    5.4948  -20.5518    0.0000 C   0  0  1  0  0  0  0  0  0  0  0  0
    4.7588  -20.9234    0.0000 C   0  0  1  0  0  0  0  0  0  0  0  0
    4.0319  -20.4591    0.0000 C   0  0  0  0  0  0  0  0  0  0  0  0
    3.2712  -20.8430    0.0000 O   0  0  0  0  0  0  0  0  0  0  0  0
    5.5530  -19.6910    0.0000 O   0  0  0  0  0  0  0  0  0  0  0  0
    4.6883  -21.7595    0.0000 O   0  0  0  0  0  0  0  0  0  0  0  0
    5.4948  -22.2285    0.0000 N   0  0  0  0  0  0  0  0  0  0  0  0
    5.4948  -23.0530    0.0000 C   0  0  0  0  0  0  0  0  0  0  0  0
    4.7527  -23.4653    0.0000 C   0  0  0  0  0  0  0  0  0  0  0  0
    6.2095  -23.4653    0.0000 O   0  0  0  0  0  0  0  0  0  0  0  0
    8.3236  -22.1736    0.0000 O   0  0  0  0  0  0  0  0  0  0  0  0
    6.2011  -20.1069    0.0000 H   0  0  0  0  0  0  0  0  0  0  0  0
  2  1  1  1  0  0  0
  2  3  1  0  0  0  0
  2  4  1  0  0  0  0
  3  5  1  0  0  0  0
  3  6  1  6  0  0  0
  4  7  1  0  0  0  0
  5  8  1  0  0  0  0
  5  9  1  1  0  0  0
  6 10  1  0  0  0  0
  7 11  1  1  0  0  0
  8 12  1  6  0  0  0
 10 13  1  0  0  0  0
 10 14  2  0  0  0  0
  7  8  1  0  0  0  0
 11 15  1  0  0  0  0
 16  9  1  1  0  0  0
 16 17  1  0  0  0  0
 17 18  1  0  0  0  0
 18 19  1  0  0  0  0
 19 20  1  0  0  0  0
 20 21  1  0  0  0  0
 16 21  1  0  0  0  0
 18 22  1  1  0  0  0
 19 23  1  1  0  0  0
 20 24  1  1  0  0  0
 21 25  1  6  0  0  0
 22 26  1  0  0  0  0
 27 28  1  0  0  0  0
 27 24  1  6  0  0  0
 27 29  1  0  0  0  0
 27 30  1  1  0  0  0
 28 31  1  0  0  0  0
 29 32  1  0  0  0  0
 30 33  1  0  0  0  0
 31 34  1  0  0  0  0
 32 35  1  6  0  0  0
 32 34  1  0  0  0  0
 31 36  1  0  0  0  0
 36 37  1  0  0  0  0
 37 38  1  0  0  0  0
 38 39  1  0  0  0  0
 36 40  1  1  0  0  0
 37 41  1  6  0  0  0
 34 42  1  1  0  0  0
 42 43  1  0  0  0  0
 43 44  1  0  0  0  0
 43 45  2  0  0  0  0
 30 46  2  0  0  0  0
 31 47  1  1  0  0  0
M  END
> <ID>
CHEBI:71604

> <NAME>
alpha-Neup5Ac-(2->3)-beta-D-Galp-(1->3)-beta-D-GlcpNAc

> <DEFINITION>
A linear amino trisaccharide comprising an α-N-acetylneuraminyl residue (2→3)-linked to a β-D-galactosyl residue, which is in turn linked (1→3) to N-acetyl-β-D-glucosamine.

> <STAR>
3

> <SYNONYM>
Neu5Acalpha2-3Galbeta1-3GlcNAcbeta; Neu5Aca2-3Galb1-3GlcNAcb; N-acetyl-alpha-neuraminyl-(2->3)-beta-D-galactosyl-(1->3)-N-acetyl-beta-D-glucosamine; alpha-Neu5Ac-(2->3)-beta-D-Gal-(1->3)-beta-D-GlcNAc

> <IUPAC_NAME>
5-acetamido-3,5-dideoxy-D-glycero-alpha-D-galacto-non-2-ulopyranonosyl-(2->3)-beta-D-galactopyranosyl-(1->3)-2-acetamido-2-deoxy-beta-D-glucopyranose

> <FORMULA>
C25H42N2O19

> <MASS>
674.60300

> <MONOISOTOPIC_MASS>
674.23818

> <CHARGE>
0

> <SMILES>
[H][C@]1(O[C@@](C[C@H](O)[C@H]1NC(C)=O)(O[C@H]1[C@@H](O)[C@@H](CO)O[C@@H](O[C@H]2[C@H](O)[C@@H](CO)O[C@@H](O)[C@@H]2NC(C)=O)[C@@H]1O)C(O)=O)[C@H](O)[C@H](O)CO

> <INCHI>
InChI=1S/C25H42N2O19/c1-7(31)26-13-9(33)3-25(24(40)41,45-20(13)15(35)10(34)4-28)46-21-17(37)12(6-30)43-23(18(21)38)44-19-14(27-8(2)32)22(39)42-11(5-29)16(19)36/h9-23,28-30,33-39H,3-6H2,1-2H3,(H,26,31)(H,27,32)(H,40,41)/t9-,10+,11+,12+,13+,14+,15+,16+,17-,18+,19+,20+,21-,22+,23-,25-/m0/s1

> <INCHIKEY>
KMRCGPSUZRGVOV-CTFHGZAXSA-N

> <PUBMED_CITATION>
19443021; 25568069; 31537530

$$$$

Marvin  01161311062D          

 47 49  0  0  1  0            999 V2000
   11.4607  -15.2219    0.0000 C   0  0  2  0  0  0  0  0  0  0  0  0
   11.4607  -16.0465    0.0000 C   0  0  1  0  0  0  0  0  0  0  0  0
   12.1755  -14.8096    0.0000 O   0  0  0  0  0  0  0  0  0  0  0  0
   10.7463  -14.8096    0.0000 O   0  0  0  0  0  0  0  0  0  0  0  0
   10.7463  -16.4864    0.0000 C   0  0  2  0  0  0  0  0  0  0  0  0
   12.1755  -16.4589    0.0000 N   0  0  0  0  0  0  0  0  0  0  0  0
   10.0315  -15.2219    0.0000 C   0  0  1  0  0  0  0  0  0  0  0  0
   10.0315  -16.0465    0.0000 C   0  0  1  0  0  0  0  0  0  0  0  0
   10.7463  -17.3110    0.0000 O   0  0  0  0  0  0  0  0  0  0  0  0
   12.1755  -17.2835    0.0000 C   0  0  0  0  0  0  0  0  0  0  0  0
    9.3167  -14.8096    0.0000 C   0  0  0  0  0  0  0  0  0  0  0  0
    9.3167  -16.4589    0.0000 O   0  0  0  0  0  0  0  0  0  0  0  0
   12.8901  -17.6957    0.0000 C   0  0  0  0  0  0  0  0  0  0  0  0
   11.4607  -17.6957    0.0000 O   0  0  0  0  0  0  0  0  0  0  0  0
    9.3167  -13.9849    0.0000 O   0  0  0  0  0  0  0  0  0  0  0  0
    8.6296  -16.8712    0.0000 C   0  0  2  0  0  0  0  0  0  0  0  0
    7.8874  -16.4589    0.0000 O   0  0  0  0  0  0  0  0  0  0  0  0
    8.6296  -17.6957    0.0000 C   0  0  1  0  0  0  0  0  0  0  0  0
    7.1728  -16.8712    0.0000 C   0  0  1  0  0  0  0  0  0  0  0  0
    7.8874  -18.1356    0.0000 C   0  0  2  0  0  0  0  0  0  0  0  0
    9.3167  -18.1082    0.0000 O   0  0  0  0  0  0  0  0  0  0  0  0
    7.1728  -17.6957    0.0000 C   0  0  1  0  0  0  0  0  0  0  0  0
    6.4583  -16.4589    0.0000 C   0  0  0  0  0  0  0  0  0  0  0  0
    7.8874  -18.9327    0.0000 O   0  0  0  0  0  0  0  0  0  0  0  0
    6.4583  -18.1082    0.0000 O   0  0  0  0  0  0  0  0  0  0  0  0
    6.4583  -15.6342    0.0000 O   0  0  0  0  0  0  0  0  0  0  0  0
    6.8430  -19.5649    0.0000 C   0  0  1  0  0  0  0  0  0  0  0  0
    6.1559  -19.1527    0.0000 O   0  0  0  0  0  0  0  0  0  0  0  0
    6.8430  -20.3620    0.0000 C   0  0  0  0  0  0  0  0  0  0  0  0
    7.5302  -19.9222    0.0000 C   0  0  0  0  0  0  0  0  0  0  0  0
    5.4411  -19.5649    0.0000 C   0  0  2  0  0  0  0  0  0  0  0  0
    6.1559  -20.7742    0.0000 C   0  0  1  0  0  0  0  0  0  0  0  0
    8.2173  -19.5099    0.0000 O   0  0  0  0  0  0  0  0  0  0  0  0
    7.5302  -20.7468    0.0000 O   0  0  0  0  0  0  0  0  0  0  0  0
    5.4411  -20.3620    0.0000 C   0  0  1  0  0  0  0  0  0  0  0  0
    6.1559  -21.5713    0.0000 O   0  0  0  0  0  0  0  0  0  0  0  0
    4.7265  -19.1251    0.0000 C   0  0  1  0  0  0  0  0  0  0  0  0
    4.7265  -18.3006    0.0000 C   0  0  1  0  0  0  0  0  0  0  0  0
    3.9844  -17.8607    0.0000 C   0  0  0  0  0  0  0  0  0  0  0  0
    3.9844  -17.0086    0.0000 O   0  0  0  0  0  0  0  0  0  0  0  0
    4.7265  -19.9773    0.0000 H   0  0  0  0  0  0  0  0  0  0  0  0
    3.9844  -19.5649    0.0000 O   0  0  0  0  0  0  0  0  0  0  0  0
    5.4411  -17.8607    0.0000 O   0  0  0  0  0  0  0  0  0  0  0  0
    4.7265  -20.7742    0.0000 N   0  0  0  0  0  0  0  0  0  0  0  0
    4.7265  -21.6263    0.0000 C   0  0  0  0  0  0  0  0  0  0  0  0
    3.9844  -22.0388    0.0000 C   0  0  0  0  0  0  0  0  0  0  0  0
    5.4411  -22.0388    0.0000 O   0  0  0  0  0  0  0  0  0  0  0  0
  1  2  1  0  0  0  0
  1  3  1  1  0  0  0
  1  4  1  0  0  0  0
  2  5  1  0  0  0  0
  2  6  1  6  0  0  0
  4  7  1  0  0  0  0
  5  8  1  0  0  0  0
  5  9  1  1  0  0  0
  6 10  1  0  0  0  0
  7 11  1  1  0  0  0
  7  8  1  0  0  0  0
  8 12  1  6  0  0  0
 10 13  1  0  0  0  0
 10 14  2  0  0  0  0
 11 15  1  0  0  0  0
 16 12  1  1  0  0  0
 16 17  1  0  0  0  0
 16 18  1  0  0  0  0
 17 19  1  0  0  0  0
 18 20  1  0  0  0  0
 18 21  1  6  0  0  0
 19 22  1  0  0  0  0
 19 23  1  1  0  0  0
 20 24  1  1  0  0  0
 20 22  1  0  0  0  0
 22 25  1  1  0  0  0
 23 26  1  0  0  0  0
 27 24  1  6  0  0  0
 27 28  1  0  0  0  0
 27 29  1  0  0  0  0
 27 30  1  1  0  0  0
 28 31  1  0  0  0  0
 29 32  1  0  0  0  0
 30 33  1  0  0  0  0
 30 34  2  0  0  0  0
 31 35  1  0  0  0  0
 31 37  1  0  0  0  0
 31 41  1  1  0  0  0
 32 36  1  6  0  0  0
 32 35  1  0  0  0  0
 35 44  1  1  0  0  0
 37 38  1  0  0  0  0
 37 42  1  6  0  0  0
 38 39  1  0  0  0  0
 38 43  1  1  0  0  0
 39 40  1  0  0  0  0
 44 45  1  0  0  0  0
 45 46  1  0  0  0  0
 45 47  2  0  0  0  0
M  END
> <ID>
CHEBI:71612

> <NAME>
alpha-Neup5Ac-(2->3)-beta-D-Galp-(1->4)-beta-D-GlcpNAc

> <DEFINITION>
α-Neup5Ac-(2→3)-β-D-Galp-(1→4)-D-GlcpNAc with β configuration at the anomeric position of the reducing-end N-acetyl-D-glucosamine residue.

> <STAR>
3

> <SYNONYM>
Neu5Acalpha2-3Galbeta1-4GlcNAcbeta; Neu5Aca2-3Galb1-4GlcNAcb; Neu5Ac (alpha1-3)Gal (beta1-4)GlcNac (beta); N-acetyl-alpha-neuraminyl-(2->3)-beta-D-galactosyl-(1->4)-N-acetyl-beta-D-glucosamine; alpha-Neu5Ac-(2->3)-beta-D-Gal-(1->4)-beta-D-GlcNAc

> <IUPAC_NAME>
5-acetamido-3,5-dideoxy-D-glycero-alpha-D-galacto-non-2-ulopyranonosyl-(2->3)-beta-D-galactopyranosyl-(1->4)-2-acetamido-2-deoxy-beta-D-glucopyranose

> <FORMULA>
C25H42N2O19

> <MASS>
674.60300

> <MONOISOTOPIC_MASS>
674.23818

> <CHARGE>
0

> <SMILES>
[H][C@]1(O[C@@](C[C@H](O)[C@H]1NC(C)=O)(O[C@H]1[C@@H](O)[C@@H](CO)O[C@@H](O[C@H]2[C@H](O)[C@@H](NC(C)=O)[C@H](O)O[C@@H]2CO)[C@@H]1O)C(O)=O)[C@H](O)[C@H](O)CO

> <INCHI>
InChI=1S/C25H42N2O19/c1-7(31)26-13-9(33)3-25(24(40)41,45-20(13)15(35)10(34)4-28)46-21-16(36)11(5-29)43-23(18(21)38)44-19-12(6-30)42-22(39)14(17(19)37)27-8(2)32/h9-23,28-30,33-39H,3-6H2,1-2H3,(H,26,31)(H,27,32)(H,40,41)/t9-,10+,11+,12+,13+,14+,15+,16-,17+,18+,19+,20+,21-,22+,23-,25-/m0/s1

> <INCHIKEY>
GVXWGQLSDZJHFY-SDJLXEQRSA-N

> <PUBMED_CITATION>
15607650; 19443021; 25568069; 31537530

$$$$

Marvin  01281314542D          

 47 49  0  0  1  0            999 V2000
   15.5477  -30.1308    0.0000 O   0  0  0  0  0  0  0  0  0  0  0  0
   13.4254  -30.5552    0.0000 C   0  0  1  0  0  0  0  0  0  0  0  0
   14.1328  -30.1308    0.0000 O   0  0  0  0  0  0  0  0  0  0  0  0
   13.4254  -31.3758    0.0000 C   0  0  2  0  0  0  0  0  0  0  0  0
   14.8404  -30.5552    0.0000 C   0  0  2  0  0  0  0  0  0  0  0  0
   14.1328  -31.7720    0.0000 C   0  0  1  0  0  0  0  0  0  0  0  0
   12.7181  -31.7720    0.0000 O   0  0  0  0  0  0  0  0  0  0  0  0
   14.8404  -31.3758    0.0000 C   0  0  1  0  0  0  0  0  0  0  0  0
   14.1328  -32.5925    0.0000 O   0  0  0  0  0  0  0  0  0  0  0  0
   15.5197  -31.8282    0.0000 N   0  0  0  0  0  0  0  0  0  0  0  0
   12.6898  -30.1308    0.0000 C   0  0  0  0  0  0  0  0  0  0  0  0
    9.7186  -31.8851    0.0000 C   0  0  0  0  0  0  0  0  0  0  0  0
   10.4259  -32.2815    0.0000 C   0  0  1  0  0  0  0  0  0  0  0  0
   11.1051  -31.8851    0.0000 O   0  0  0  0  0  0  0  0  0  0  0  0
   10.4259  -33.1019    0.0000 C   0  0  1  0  0  0  0  0  0  0  0  0
   11.8408  -32.2815    0.0000 C   0  0  2  0  0  0  0  0  0  0  0  0
   11.1051  -33.4981    0.0000 C   0  0  1  0  0  0  0  0  0  0  0  0
    9.7186  -33.4981    0.0000 O   0  0  0  0  0  0  0  0  0  0  0  0
   11.8408  -33.1019    0.0000 C   0  0  1  0  0  0  0  0  0  0  0  0
   11.1334  -34.3188    0.0000 O   0  0  0  0  0  0  0  0  0  0  0  0
   12.5483  -33.4981    0.0000 O   0  0  0  0  0  0  0  0  0  0  0  0
   11.9540  -30.5552    0.0000 O   0  0  0  0  0  0  0  0  0  0  0  0
    8.9828  -32.3096    0.0000 O   0  0  0  0  0  0  0  0  0  0  0  0
    8.2471  -31.8851    0.0000 C   0  0  2  0  0  0  0  0  0  0  0  0
    7.5396  -31.4607    0.0000 O   0  0  0  0  0  0  0  0  0  0  0  0
    8.2471  -32.7058    0.0000 C   0  0  0  0  0  0  0  0  0  0  0  0
    7.5396  -33.1304    0.0000 C   0  0  1  0  0  0  0  0  0  0  0  0
    6.8039  -32.7058    0.0000 C   0  0  1  0  0  0  0  0  0  0  0  0
    7.5396  -33.9509    0.0000 O   0  0  0  0  0  0  0  0  0  0  0  0
    6.0871  -31.4766    0.0000 C   0  0  1  0  0  0  0  0  0  0  0  0
    5.3567  -31.9095    0.0000 C   0  0  1  0  0  0  0  0  0  0  0  0
    4.5777  -31.4829    0.0000 C   0  0  0  0  0  0  0  0  0  0  0  0
    3.8231  -31.9301    0.0000 O   0  0  0  0  0  0  0  0  0  0  0  0
    6.8178  -30.9302    0.0000 H   0  0  0  0  0  0  0  0  0  0  0  0
    6.0871  -30.5886    0.0000 O   0  0  0  0  0  0  0  0  0  0  0  0
    6.0681  -33.1304    0.0000 N   0  0  0  0  0  0  0  0  0  0  0  0
    6.0681  -34.0074    0.0000 C   0  0  0  0  0  0  0  0  0  0  0  0
    5.3041  -34.4319    0.0000 C   0  0  0  0  0  0  0  0  0  0  0  0
    6.8039  -34.4319    0.0000 O   0  0  0  0  0  0  0  0  0  0  0  0
    8.6715  -31.2333    0.0000 C   0  0  0  0  0  0  0  0  0  0  0  0
    9.5204  -31.2333    0.0000 O   0  0  0  0  0  0  0  0  0  0  0  0
    8.2471  -30.4977    0.0000 O   0  0  0  0  0  0  0  0  0  0  0  0
   15.5075  -32.6732    0.0000 C   0  0  0  0  0  0  0  0  0  0  0  0
   14.7722  -33.0836    0.0000 O   0  0  0  0  0  0  0  0  0  0  0  0
   16.2305  -33.1048    0.0000 C   0  0  0  0  0  0  0  0  0  0  0  0
    5.3567  -32.7345    0.0000 O   0  0  0  0  0  0  0  0  0  0  0  0
    6.8039  -31.8851    0.0000 C   0  0  2  0  0  0  0  0  0  0  0  0
  6  8  1  0  0  0  0
  2 11  1  1  0  0  0
  2  3  1  0  0  0  0
  2  4  1  0  0  0  0
  3  5  1  0  0  0  0
  4  6  1  0  0  0  0
  4  7  1  6  0  0  0
  5  8  1  0  0  0  0
  5  1  1  1  0  0  0
  6  9  1  1  0  0  0
  8 10  1  6  0  0  0
 13 12  1  1  0  0  0
 13 14  1  0  0  0  0
 13 15  1  0  0  0  0
 14 16  1  0  0  0  0
 15 17  1  0  0  0  0
 15 18  1  1  0  0  0
 16 19  1  0  0  0  0
 16  7  1  1  0  0  0
 17 20  1  1  0  0  0
 19 21  1  6  0  0  0
 17 19  1  0  0  0  0
 11 22  1  0  0  0  0
 12 23  1  0  0  0  0
 24 25  1  0  0  0  0
 24 26  1  0  0  0  0
 25 47  1  0  0  0  0
 26 27  1  0  0  0  0
 47 28  1  0  0  0  0
 27 29  1  6  0  0  0
 27 28  1  0  0  0  0
 30 31  1  0  0  0  0
 31 32  1  0  0  0  0
 32 33  1  0  0  0  0
 47 34  1  1  0  0  0
 30 35  1  1  0  0  0
 28 36  1  1  0  0  0
 36 37  1  0  0  0  0
 37 38  1  0  0  0  0
 37 39  2  0  0  0  0
 24 40  1  0  0  0  0
 24 23  1  1  0  0  0
 40 41  2  0  0  0  0
 40 42  1  0  0  0  0
 10 43  1  0  0  0  0
 43 44  2  0  0  0  0
 43 45  1  0  0  0  0
 31 46  1  6  0  0  0
 30 47  1  0  0  0  0
M  END
> <ID>
CHEBI:71945

> <NAME>
beta-NeupNAc-(2->6)-beta-D-Galp-(1->4)-beta-D-GlcpNAc

> <DEFINITION>
An amino trisaccharide consisting of an N-acetyl-β-neuraminyl residue attached to the galactose residue of N-acetyllactosamine via an α-(2→6)-linkage.

> <STAR>
3

> <SYNONYM>
Neu5Acbeta2-6Galbeta1-4GlcNAcbeta; Neu5Acb2-6Galbeta1-4GlcNAcbeta; Neu5Acb2-6Galb1-4GlcNAcb; beta-NeuNAc-(2->6)-beta-D-Gal-(1->4)-beta-D-GlcNAc; beta-N-acetylneuraminyl-2,6-beta-D-galactosyl-1,4-N-acetyl-beta-D-glucosamine

> <IUPAC_NAME>
5-acetamido-3,5-dideoxy-D-glycero-beta-D-galacto-non-2-ulopyranonosyl-(2->6)-beta-D-galactopyranosyl-(1->4)-2-acetamido-2-deoxy-beta-D-glucopyranose

> <FORMULA>
C25H42N2O19

> <MASS>
674.60300

> <MONOISOTOPIC_MASS>
674.23818

> <CHARGE>
0

> <SMILES>
[H][C@]1(O[C@](C[C@H](O)[C@H]1NC(C)=O)(OC[C@H]1O[C@@H](O[C@H]2[C@H](O)[C@@H](NC(C)=O)[C@H](O)O[C@@H]2CO)[C@H](O)[C@@H](O)[C@H]1O)C(O)=O)[C@H](O)[C@H](O)CO

> <INCHI>
InChI=1S/C25H42N2O19/c1-7(30)26-13-9(32)3-25(24(40)41,46-21(13)15(34)10(33)4-28)42-6-12-16(35)18(37)19(38)23(44-12)45-20-11(5-29)43-22(39)14(17(20)36)27-8(2)31/h9-23,28-29,32-39H,3-6H2,1-2H3,(H,26,30)(H,27,31)(H,40,41)/t9-,10+,11+,12+,13+,14+,15+,16-,17+,18-,19+,20+,21+,22+,23-,25-/m0/s1

> <INCHIKEY>
RPSBVJXBTXEJJG-BOTDAAFFSA-N

> <PUBMED_CITATION>
19443021; 25568069; 31537530

$$$$

Marvin  01281315472D          

 22 23  0  0  1  0            999 V2000
   26.0185  -52.9565    0.0000 O   0  0  0  0  0  0  0  0  0  0  0  0
   25.1980  -53.0427    0.0000 C   0  0  2  0  0  0  0  0  0  0  0  0
   26.3540  -53.7102    0.0000 C   0  0  1  0  0  0  0  0  0  0  0  0
   27.1611  -53.8818    0.0000 O   0  0  0  0  0  0  0  0  0  0  0  0
   25.7410  -54.2622    0.0000 C   0  0  2  0  0  0  0  0  0  0  0  0
   25.8271  -55.0828    0.0000 O   0  0  0  0  0  0  0  0  0  0  0  0
   25.0264  -53.8497    0.0000 C   0  0  1  0  0  0  0  0  0  0  0  0
   23.5359  -53.8616    0.0000 O   0  0  0  0  0  0  0  0  0  0  0  0
   24.6459  -52.4296    0.0000 C   0  0  0  0  0  0  0  0  0  0  0  0
   23.8389  -52.6011    0.0000 O   0  0  0  0  0  0  0  0  0  0  0  0
   28.8111  -52.4529    0.0000 C   0  0  1  0  0  0  0  0  0  0  0  0
   28.3986  -53.1674    0.0000 C   0  0  2  0  0  0  0  0  0  0  0  0
   28.3986  -51.7384    0.0000 O   0  0  0  0  0  0  0  0  0  0  0  0
   27.5736  -53.1674    0.0000 C   0  0  2  0  0  0  0  0  0  0  0  0
   27.5736  -51.7384    0.0000 C   0  0  2  0  0  0  0  0  0  0  0  0
   27.1611  -52.4529    0.0000 C   0  0  1  0  0  0  0  0  0  0  0  0
   29.9015  -52.4315    0.0000 O   0  0  0  0  0  0  0  0  0  0  0  0
   28.8111  -53.8819    0.0000 O   0  0  0  0  0  0  0  0  0  0  0  0
   26.3361  -52.4528    0.0000 O   0  0  0  0  0  0  0  0  0  0  0  0
   27.1611  -51.0239    0.0000 C   0  0  0  0  0  0  0  0  0  0  0  0
   26.3361  -51.0239    0.0000 C   0  0  0  0  0  0  0  0  0  0  0  0
   25.9236  -50.3095    0.0000 O   0  0  0  0  0  0  0  0  0  0  0  0
  1  2  1  0  0  0  0
  1  3  1  0  0  0  0
  2  7  1  0  0  0  0
  2  9  1  6  0  0  0
  5  3  1  0  0  0  0
  3  4  1  1  0  0  0
  7  5  1  0  0  0  0
  5  6  1  6  0  0  0
  7  8  1  1  0  0  0
  9 10  1  0  0  0  0
 11 12  1  0  0  0  0
 11 13  1  0  0  0  0
 12 14  1  0  0  0  0
 13 15  1  0  0  0  0
 14 16  1  0  0  0  0
 15 16  1  0  0  0  0
 11 17  1  1  0  0  0
 12 18  1  1  0  0  0
 14  4  1  1  0  0  0
 16 19  1  6  0  0  0
 15 20  1  6  0  0  0
 21 20  1  0  0  0  0
 21 22  1  0  0  0  0
M  STY  1   1 SRU
M  SCN  1   1 HT 
M  SAL   1 15   1   2   3   4   5   6   7   9  10  11  12  13  14  15  16
M  SAL   1  5  18  19  20  21  22
M  SDI   1  4   29.2520  -52.0317   29.2682  -52.8565
M  SDI   1  4   24.4160  -54.2671   24.4094  -53.4421
M  SBL   1  2   9  17
M  SMT   1 n
M  END
> <ID>
CHEBI:71946

> <NAME>
[3)-alpha-L-Araf-(1->3)-6d-alpha-L-gulo-Hepp-(1->]n

> <DEFINITION>
A polysaccharide composed of a backbone of α-L-arabinofuranosyl-(1→3)-6-deoxy-α-L-gulo-heptopyranosyl repeating units that are joined to each other via (1→3)-linkages.

> <STAR>
3

> <SYNONYM>
[->3)-alpha-L-Araf-(1->3)-6d-L-alpha-gulo-Hepp(1->]n; [3)-alpha-L-arabinofuranosyl-(1->3)-6-deoxy-alpha-L-gulo-heptopyranosyl-(1->]n

> <FORMULA>
H2O2(C12H20O8)n

> <CHARGE>
0

> <PUBMED_CITATION>
23261782

$$$$

Marvin  02121313012D          

 34 35  0  0  1  0            999 V2000
    6.4188   -3.6114    0.0000 O   0  0  0  0  0  0  0  0  0  0  0  0
    5.7043   -4.0239    0.0000 C   0  0  1  0  0  0  0  0  0  0  0  0
    8.5623   -4.8489    0.0000 C   0  0  0  0  0  0  0  0  0  0  0  0
    9.9911   -4.8489    0.0000 O   0  0  0  0  0  0  0  0  0  0  0  0
    8.5623   -4.0239    0.0000 C   0  0  1  0  0  0  0  0  0  0  0  0
    7.8476   -3.6114    0.0000 O   0  0  0  0  0  0  0  0  0  0  0  0
    9.2767   -3.6114    0.0000 C   0  0  0  0  0  0  0  0  0  0  0  0
    9.2767   -5.2614    0.0000 C   0  0  2  0  0  0  0  0  0  0  0  0
    9.9911   -4.0239    0.0000 C   0  0  0  0  0  0  0  0  0  0  0  0
    7.1332   -4.0239    0.0000 C   0  0  2  0  0  0  0  0  0  0  0  0
    7.1332   -4.8489    0.0000 C   0  0  0  0  0  0  0  0  0  0  0  0
    6.4188   -5.2614    0.0000 C   0  0  2  0  0  0  0  0  0  0  0  0
    5.7043   -4.8489    0.0000 C   0  0  1  0  0  0  0  0  0  0  0  0
   10.7057   -3.6116    0.0000 C   0  0  1  0  0  0  0  0  0  0  0  0
   11.4201   -4.0241    0.0000 C   0  0  0  0  0  0  0  0  0  0  0  0
   10.7057   -2.7866    0.0000 O   0  0  0  0  0  0  0  0  0  0  0  0
    7.1332   -3.1989    0.0000 C   0  0  0  0  0  0  0  0  0  0  0  0
   12.1346   -3.6117    0.0000 O   0  0  0  0  0  0  0  0  0  0  0  0
    6.4188   -2.7864    0.0000 O   0  0  0  0  0  0  0  0  0  0  0  0
    7.8476   -2.7864    0.0000 O   0  0  0  0  0  0  0  0  0  0  0  0
    9.2764   -6.0864    0.0000 O   0  0  0  0  0  0  0  0  0  0  0  0
   10.7056   -5.2616    0.0000 O   0  0  0  0  0  0  0  0  0  0  0  0
    9.9911   -5.6741    0.0000 C   0  0  0  0  0  0  0  0  0  0  0  0
    9.9908   -6.4991    0.0000 O   0  0  0  0  0  0  0  0  0  0  0  0
    4.9899   -3.6112    0.0000 C   0  0  1  0  0  0  0  0  0  0  0  0
    6.4187   -6.0864    0.0000 O   0  0  0  0  0  0  0  0  0  0  0  0
    4.9899   -5.2613    0.0000 O   0  0  0  0  0  0  0  0  0  0  0  0
    5.7043   -3.1989    0.0000 H   0  0  0  0  0  0  0  0  0  0  0  0
    3.5610   -3.6114    0.0000 O   0  0  0  0  0  0  0  0  0  0  0  0
    4.2755   -4.0238    0.0000 C   0  0  0  0  0  0  0  0  0  0  0  0
    4.9899   -2.7863    0.0000 O   0  0  0  0  0  0  0  0  0  0  0  0
    8.5620   -6.4989    0.0000 C   0  0  0  0  0  0  0  0  0  0  0  0
    8.5620   -7.3240    0.0000 C   0  0  0  0  0  0  0  0  0  0  0  0
    7.8476   -7.7365    0.0000 C   0  0  0  0  0  0  0  0  0  0  0  0
  2  1  1  0  0  0  0
 25  2  1  0  0  0  0
  2 28  1  6  0  0  0
  5  3  1  0  0  0  0
  5  6  1  1  0  0  0
  7  5  1  0  0  0  0
  8  4  1  0  0  0  0
  8  3  1  0  0  0  0
  8 21  1  6  0  0  0
  8 23  1  0  0  0  0
  9  7  2  0  0  0  0
  9  4  1  0  0  0  0
  9 14  1  0  0  0  0
 10  1  1  0  0  0  0
 10  6  1  6  0  0  0
 10 17  1  0  0  0  0
 10 11  1  0  0  0  0
 12 11  1  0  0  0  0
 12 26  1  1  0  0  0
 13 12  1  0  0  0  0
  2 13  1  0  0  0  0
 13 27  1  1  0  0  0
 14 15  1  0  0  0  0
 14 16  1  6  0  0  0
 15 18  1  0  0  0  0
 17 19  1  0  0  0  0
 17 20  2  0  0  0  0
 23 22  1  0  0  0  0
 23 24  2  0  0  0  0
 25 31  1  1  0  0  0
 25 30  1  0  0  0  0
 30 29  1  0  0  0  0
 21 32  1  0  0  0  0
 32 33  1  0  0  0  0
 33 34  2  0  0  0  0
M  END
> <ID>
CHEBI:72338

> <NAME>
alpha-Kdo-(2->4)-5,6-dehydro-alpha-Kdo-OAll

> <DEFINITION>
A disaccharide derivative consisting of a 3-deoxy-α-D-manno-oct-2-ulopyranonosyl unit joined via an α-(2→4)-linkage to a 5,6-dehydro-3-deoxy-α-D-manno-oct-2-ulopyranonosyl unit with an O-allyl group at the anomeric centre.

> <STAR>
3

> <IUPAC_NAME>
prop-2-en-1-yl 3,5-dideoxy-4-O-{(6R)-3-deoxy-6-[(1R)-1,2-dihydroxyethyl]-beta-L-erythro-hex-2-ulopyranonosyl}-6-[(1R)-1,2-dihydroxyethyl]-beta-L-glycero-hex-5-en-2-ulopyranosidonic acid

> <FORMULA>
C19H28O14

> <MASS>
480.41720

> <MONOISOTOPIC_MASS>
480.14791

> <CHARGE>
0

> <SMILES>
[H][C@@]1(O[C@@](C[C@@H](O)[C@H]1O)(O[C@@H]1C[C@@](OCC=C)(OC(=C1)[C@H](O)CO)C(O)=O)C(O)=O)[C@H](O)CO

> <INCHI>
InChI=1S/C19H28O14/c1-2-3-30-18(16(26)27)5-9(4-13(32-18)11(23)7-20)31-19(17(28)29)6-10(22)14(25)15(33-19)12(24)8-21/h2,4,9-12,14-15,20-25H,1,3,5-8H2,(H,26,27)(H,28,29)/t9-,10+,11+,12+,14+,15+,18+,19+/m0/s1

> <INCHIKEY>
VSLYDEOWNYWHNR-YIEJHWNISA-N

> <PUBMED_CITATION>
23295476

$$$$

Marvin  02151310292D          

 48 50  0  0  1  0            999 V2000
    7.3322  -35.2854    0.0000 O   0  0  0  0  0  0  0  0  0  0  0  0
    6.6176  -35.6979    0.0000 C   0  0  2  0  0  0  0  0  0  0  0  0
    6.6176  -36.5229    0.0000 C   0  0  1  0  0  0  0  0  0  0  0  0
    7.3322  -36.9354    0.0000 C   0  0  2  0  0  0  0  0  0  0  0  0
    8.0468  -36.5229    0.0000 C   0  0  0  0  0  0  0  0  0  0  0  0
    7.3322  -37.7604    0.0000 O   0  0  0  0  0  0  0  0  0  0  0  0
    5.9032  -35.2853    0.0000 C   0  0  1  0  0  0  0  0  0  0  0  0
    5.1888  -35.6978    0.0000 C   0  0  1  0  0  0  0  0  0  0  0  0
    5.9034  -34.4604    0.0000 O   0  0  0  0  0  0  0  0  0  0  0  0
    4.4744  -35.2853    0.0000 C   0  0  0  0  0  0  0  0  0  0  0  0
    5.1888  -36.5229    0.0000 O   0  0  0  0  0  0  0  0  0  0  0  0
    3.7599  -35.6976    0.0000 O   0  0  0  0  0  0  0  0  0  0  0  0
    6.6178  -34.8729    0.0000 H   0  0  0  0  0  0  0  0  0  0  0  0
    8.0468  -35.6979    0.0000 C   0  0  1  0  0  0  0  0  0  0  0  0
    5.9032  -36.9354    0.0000 N   0  0  0  0  0  0  0  0  0  0  0  0
    5.9032  -37.7604    0.0000 C   0  0  0  0  0  0  0  0  0  0  0  0
    5.1888  -38.1729    0.0000 C   0  0  0  0  0  0  0  0  0  0  0  0
    8.7983  -35.0972    0.0000 O   0  0  0  0  0  0  0  0  0  0  0  0
    8.8302  -36.2387    0.0000 C   0  0  0  0  0  0  0  0  0  0  0  0
    9.4873  -35.7259    0.0000 O   0  0  0  0  0  0  0  0  0  0  0  0
    8.8264  -37.0709    0.0000 O   0  0  0  0  0  0  0  0  0  0  0  0
    6.6177  -38.1728    0.0000 O   0  0  0  0  0  0  0  0  0  0  0  0
    4.4743  -37.7604    0.0000 O   0  0  0  0  0  0  0  0  0  0  0  0
    9.5134  -33.0347    0.0000 C   0  0  2  0  0  0  0  0  0  0  0  0
    8.7983  -32.6222    0.0000 O   0  0  0  0  0  0  0  0  0  0  0  0
    8.0835  -33.0347    0.0000 C   0  0  1  0  0  0  0  0  0  0  0  0
    8.0835  -33.8597    0.0000 C   0  0  1  0  0  0  0  0  0  0  0  0
    8.7983  -34.2722    0.0000 C   0  0  1  0  0  0  0  0  0  0  0  0
    9.5134  -33.8597    0.0000 C   0  0  1  0  0  0  0  0  0  0  0  0
    7.3684  -32.6222    0.0000 C   0  0  0  0  0  0  0  0  0  0  0  0
    7.3959  -34.2997    0.0000 O   0  0  0  0  0  0  0  0  0  0  0  0
   10.2284  -34.2722    0.0000 O   0  0  0  0  0  0  0  0  0  0  0  0
    6.6534  -33.0347    0.0000 O   0  0  0  0  0  0  0  0  0  0  0  0
   10.2278  -32.6221    0.0000 O   0  0  0  0  0  0  0  0  0  0  0  0
    8.7989  -31.7971    0.0000 O   0  0  0  0  0  0  0  0  0  0  0  0
   10.9423  -30.5597    0.0000 C   0  0  1  0  0  0  0  0  0  0  0  0
   10.9423  -31.3847    0.0000 C   0  0  1  0  0  0  0  0  0  0  0  0
   10.2278  -30.1472    0.0000 O   0  0  0  0  0  0  0  0  0  0  0  0
   10.2278  -31.7971    0.0000 C   0  0  2  0  0  0  0  0  0  0  0  0
    9.5133  -30.5597    0.0000 C   0  0  1  0  0  0  0  0  0  0  0  0
    9.5133  -31.3847    0.0000 C   0  0  1  0  0  0  0  0  0  0  0  0
   11.6568  -30.1472    0.0000 O   0  0  0  0  0  0  0  0  0  0  0  0
   11.6568  -31.7971    0.0000 N   0  0  0  0  0  0  0  0  0  0  0  0
    8.7989  -30.1472    0.0000 C   0  0  0  0  0  0  0  0  0  0  0  0
    8.0844  -30.5597    0.0000 O   0  0  0  0  0  0  0  0  0  0  0  0
   12.3713  -31.3846    0.0000 C   0  0  0  0  0  0  0  0  0  0  0  0
   12.3713  -30.5596    0.0000 O   0  0  0  0  0  0  0  0  0  0  0  0
   13.0857  -31.7971    0.0000 C   0  0  0  0  0  0  0  0  0  0  0  0
  2  1  1  0  0  0  0
  2  7  1  0  0  0  0
  2 13  1  1  0  0  0
  2  3  1  0  0  0  0
  3 15  1  1  0  0  0
  3  4  1  0  0  0  0
  4  6  1  6  0  0  0
  4  5  1  0  0  0  0
  1 14  1  0  0  0  0
 14  5  1  0  0  0  0
  7  8  1  0  0  0  0
  7  9  1  1  0  0  0
  8 10  1  0  0  0  0
  8 11  1  6  0  0  0
 10 12  1  0  0  0  0
 15 16  1  0  0  0  0
 16 17  1  0  0  0  0
 14 18  1  6  0  0  0
 20 19  2  0  0  0  0
 21 19  1  0  0  0  0
 14 19  1  1  0  0  0
 16 22  2  0  0  0  0
 17 23  1  0  0  0  0
 24 25  1  0  0  0  0
 25 26  1  0  0  0  0
 26 27  1  0  0  0  0
 27 28  1  0  0  0  0
 28 29  1  0  0  0  0
 24 29  1  0  0  0  0
 26 30  1  1  0  0  0
 27 31  1  1  0  0  0
 28 18  1  1  0  0  0
 29 32  1  6  0  0  0
 30 33  1  0  0  0  0
 24 34  1  1  0  0  0
 36 37  1  0  0  0  0
 36 38  1  0  0  0  0
 37 39  1  0  0  0  0
 38 40  1  0  0  0  0
 39 41  1  0  0  0  0
 40 41  1  0  0  0  0
 36 42  1  1  0  0  0
 37 43  1  6  0  0  0
 39 34  1  1  0  0  0
 41 35  1  6  0  0  0
 40 44  1  1  0  0  0
 45 44  1  0  0  0  0
 47 46  2  0  0  0  0
 48 46  1  0  0  0  0
 43 46  1  0  0  0  0
M  END
> <ID>
CHEBI:72463

> <NAME>
alpha-Neup5Gc-(2->3)-beta-D-Galp-(1->3)-beta-D-GlcNAcp

> <DEFINITION>
A linear amino trisaccharide comprising an α-N-glycoloylneuraminyl residue (2→3)-linked to a β-D-galactosyl residue, which is in turn linked (1→3) to N-acetyl-β-D-glucosamine.

> <STAR>
3

> <SYNONYM>
Neu5Gcalpha2-3Galbeta1-3GlcNAcbeta; Neu5Gca2-3Galb1-3GlcNAcb; alpha-Neu5Gc-(2->3)-beta-D-Gal-(1->3)-beta-D-GlcNAc; alpha-N-glycoloylneuraminyl-(2->3)-beta-D-galactosyl-(1->3)-N-acetyl-beta-D-glucosamine

> <IUPAC_NAME>
3,5-dideoxy-5-(glycoloylamino)-D-glycero-beta-D-galacto-non-2-ulopyranonosyl-(2->3)-beta-D-galactopyranosyl-(1->3)-2-acetamido-2-deoxy-beta-D-glucopyranose

> <FORMULA>
C25H42N2O20

> <MASS>
690.60240

> <MONOISOTOPIC_MASS>
690.23309

> <CHARGE>
0

> <SMILES>
[H][C@]1(O[C@@](C[C@H](O)[C@H]1NC(=O)CO)(O[C@H]1[C@@H](O)[C@@H](CO)O[C@@H](O[C@H]2[C@H](O)[C@@H](CO)O[C@@H](O)[C@@H]2NC(C)=O)[C@@H]1O)C(O)=O)[C@H](O)[C@H](O)CO

> <INCHI>
InChI=1S/C25H42N2O20/c1-7(32)26-14-19(16(37)10(4-29)43-22(14)40)45-23-18(39)21(17(38)11(5-30)44-23)47-25(24(41)42)2-8(33)13(27-12(35)6-31)20(46-25)15(36)9(34)3-28/h8-11,13-23,28-31,33-34,36-40H,2-6H2,1H3,(H,26,32)(H,27,35)(H,41,42)/t8-,9+,10+,11+,13+,14+,15+,16+,17-,18+,19+,20+,21-,22+,23-,25-/m0/s1

> <INCHIKEY>
VVWUJNOQUDAWCD-QKWRNKESSA-N

> <PUBMED_CITATION>
19443021; 31537530; 32014849

$$$$

Marvin  02151311512D          

 48 50  0  0  1  0            999 V2000
   10.6041  -51.3231    0.0000 O   0  0  0  0  0  0  0  0  0  0  0  0
    7.7085  -53.9863    0.0000 O   0  0  0  0  0  0  0  0  0  0  0  0
    6.9939  -54.3988    0.0000 C   0  0  2  0  0  0  0  0  0  0  0  0
    6.9939  -55.2238    0.0000 C   0  0  1  0  0  0  0  0  0  0  0  0
    7.7085  -55.6363    0.0000 C   0  0  2  0  0  0  0  0  0  0  0  0
    8.4231  -55.2238    0.0000 C   0  0  0  0  0  0  0  0  0  0  0  0
    7.7085  -56.4613    0.0000 O   0  0  0  0  0  0  0  0  0  0  0  0
    6.2795  -53.9862    0.0000 C   0  0  1  0  0  0  0  0  0  0  0  0
    5.5651  -54.3987    0.0000 C   0  0  1  0  0  0  0  0  0  0  0  0
    6.2797  -53.1613    0.0000 O   0  0  0  0  0  0  0  0  0  0  0  0
    4.8507  -53.9862    0.0000 C   0  0  0  0  0  0  0  0  0  0  0  0
    5.5651  -55.2238    0.0000 O   0  0  0  0  0  0  0  0  0  0  0  0
    4.1362  -54.3986    0.0000 O   0  0  0  0  0  0  0  0  0  0  0  0
    6.9941  -53.5738    0.0000 H   0  0  0  0  0  0  0  0  0  0  0  0
    8.4231  -54.3988    0.0000 C   0  0  1  0  0  0  0  0  0  0  0  0
    6.2795  -55.6363    0.0000 N   0  0  0  0  0  0  0  0  0  0  0  0
    6.2794  -56.4613    0.0000 C   0  0  0  0  0  0  0  0  0  0  0  0
    5.5650  -56.8738    0.0000 C   0  0  0  0  0  0  0  0  0  0  0  0
    9.1746  -53.7982    0.0000 O   0  0  0  0  0  0  0  0  0  0  0  0
    9.2064  -54.9397    0.0000 C   0  0  0  0  0  0  0  0  0  0  0  0
    9.8636  -54.4269    0.0000 O   0  0  0  0  0  0  0  0  0  0  0  0
    9.2027  -55.7719    0.0000 O   0  0  0  0  0  0  0  0  0  0  0  0
    6.9940  -56.8738    0.0000 O   0  0  0  0  0  0  0  0  0  0  0  0
    4.8506  -56.4613    0.0000 O   0  0  0  0  0  0  0  0  0  0  0  0
    9.8897  -51.7357    0.0000 C   0  0  2  0  0  0  0  0  0  0  0  0
    9.1746  -51.3232    0.0000 O   0  0  0  0  0  0  0  0  0  0  0  0
    8.4598  -51.7357    0.0000 C   0  0  1  0  0  0  0  0  0  0  0  0
    8.4598  -52.5606    0.0000 C   0  0  1  0  0  0  0  0  0  0  0  0
    9.1746  -52.9732    0.0000 C   0  0  1  0  0  0  0  0  0  0  0  0
    9.8897  -52.5607    0.0000 C   0  0  1  0  0  0  0  0  0  0  0  0
    7.7447  -51.3231    0.0000 C   0  0  0  0  0  0  0  0  0  0  0  0
    7.7722  -53.0007    0.0000 O   0  0  0  0  0  0  0  0  0  0  0  0
   10.6047  -52.9732    0.0000 O   0  0  0  0  0  0  0  0  0  0  0  0
    7.0297  -51.7356    0.0000 O   0  0  0  0  0  0  0  0  0  0  0  0
   12.7476  -50.0857    0.0000 C   0  0  1  0  0  0  0  0  0  0  0  0
   12.7476  -50.9107    0.0000 C   0  0  1  0  0  0  0  0  0  0  0  0
   12.0330  -49.6732    0.0000 O   0  0  0  0  0  0  0  0  0  0  0  0
   12.0330  -51.3231    0.0000 C   0  0  2  0  0  0  0  0  0  0  0  0
   11.3185  -50.0857    0.0000 C   0  0  1  0  0  0  0  0  0  0  0  0
   11.3185  -50.9107    0.0000 C   0  0  1  0  0  0  0  0  0  0  0  0
   13.4620  -49.6732    0.0000 O   0  0  0  0  0  0  0  0  0  0  0  0
   13.4620  -51.3231    0.0000 N   0  0  0  0  0  0  0  0  0  0  0  0
   12.0330  -52.1481    0.0000 O   0  0  0  0  0  0  0  0  0  0  0  0
   10.6041  -49.6732    0.0000 C   0  0  0  0  0  0  0  0  0  0  0  0
    9.8896  -50.0857    0.0000 O   0  0  0  0  0  0  0  0  0  0  0  0
   14.1765  -50.9106    0.0000 C   0  0  0  0  0  0  0  0  0  0  0  0
   14.1765  -50.0856    0.0000 O   0  0  0  0  0  0  0  0  0  0  0  0
   14.8909  -51.3231    0.0000 C   0  0  0  0  0  0  0  0  0  0  0  0
  3  2  1  0  0  0  0
  3  8  1  0  0  0  0
  3 14  1  1  0  0  0
  3  4  1  0  0  0  0
  4 16  1  1  0  0  0
  4  5  1  0  0  0  0
  5  7  1  6  0  0  0
  5  6  1  0  0  0  0
  2 15  1  0  0  0  0
 15  6  1  0  0  0  0
  8  9  1  0  0  0  0
  8 10  1  1  0  0  0
  9 11  1  0  0  0  0
  9 12  1  6  0  0  0
 11 13  1  0  0  0  0
 16 17  1  0  0  0  0
 17 18  1  0  0  0  0
 15 19  1  6  0  0  0
 21 20  2  0  0  0  0
 22 20  1  0  0  0  0
 15 20  1  1  0  0  0
 17 23  2  0  0  0  0
 18 24  1  0  0  0  0
 25 26  1  0  0  0  0
 26 27  1  0  0  0  0
 27 28  1  0  0  0  0
 28 29  1  0  0  0  0
 29 30  1  0  0  0  0
 25 30  1  0  0  0  0
 27 31  1  1  0  0  0
 28 32  1  1  0  0  0
 29 19  1  1  0  0  0
 30 33  1  6  0  0  0
 31 34  1  0  0  0  0
 25  1  1  1  0  0  0
 35 36  1  0  0  0  0
 35 37  1  0  0  0  0
 36 38  1  0  0  0  0
 37 39  1  0  0  0  0
 38 40  1  0  0  0  0
 39 40  1  0  0  0  0
 35 41  1  1  0  0  0
 36 42  1  6  0  0  0
 38 43  1  1  0  0  0
 40  1  1  6  0  0  0
 39 44  1  1  0  0  0
 45 44  1  0  0  0  0
 47 46  2  0  0  0  0
 48 46  1  0  0  0  0
 42 46  1  0  0  0  0
M  END
> <ID>
CHEBI:72466

> <NAME>
alpha-Neup5Gc-(2->3)-beta-D-Galp-(1->4)-beta-D-GlcNAcp

> <DEFINITION>
A linear amino trisaccharide comprising an α-N-glycoloylneuraminyl residue (2→3)-linked to a β-D-galactosyl residue, which is in turn linked (1→4) to N-acetyl-β-D-glucosamine.

> <STAR>
3

> <SYNONYM>
Neu5Gcalpha2-3Galbeta1-4GlcNAcbeta; Neu5Gca2-3Galb1-4GlcNAcb; alpha-Neu5Gc-(2->3)-beta-D-Gal-(1->4)-beta-D-GlcNAc; alpha-N-glycoloylneuraminyl-(2->3)-beta-D-galactosyl-(1->4)-N-acetyl-beta-D-glucosamine

> <IUPAC_NAME>
3,5-dideoxy-5-(glycoloylamino)-D-glycero-beta-D-galacto-non-2-ulopyranonosyl-(2->3)-beta-D-galactopyranosyl-(1->4)-2-acetamido-2-deoxy-beta-D-glucopyranose

> <FORMULA>
C25H42N2O20

> <MASS>
690.60240

> <MONOISOTOPIC_MASS>
690.23309

> <CHARGE>
0

> <SMILES>
[H][C@]1(O[C@@](C[C@H](O)[C@H]1NC(=O)CO)(O[C@H]1[C@@H](O)[C@@H](CO)O[C@@H](O[C@H]2[C@H](O)[C@@H](NC(C)=O)[C@H](O)O[C@@H]2CO)[C@@H]1O)C(O)=O)[C@H](O)[C@H](O)CO

> <INCHI>
InChI=1S/C25H42N2O20/c1-7(32)26-14-17(38)19(11(5-30)43-22(14)40)45-23-18(39)21(16(37)10(4-29)44-23)47-25(24(41)42)2-8(33)13(27-12(35)6-31)20(46-25)15(36)9(34)3-28/h8-11,13-23,28-31,33-34,36-40H,2-6H2,1H3,(H,26,32)(H,27,35)(H,41,42)/t8-,9+,10+,11+,13+,14+,15+,16-,17+,18+,19+,20+,21-,22+,23-,25-/m0/s1

> <INCHIKEY>
UCLLFEHQSRYVHM-FLPCITOWSA-N

> <PUBMED_CITATION>
19443021; 25568069; 31537530

$$$$

Marvin  02271314542D          

 16 17  0  0  0  0            999 V2000
   19.5956  -21.5921    0.0000 C   0  0  0  0  0  0  0  0  0  0  0  0
   19.5956  -20.2621    0.0000 C   0  0  0  0  0  0  0  0  0  0  0  0
   18.4437  -22.2571    0.0000 C   0  0  0  0  0  0  0  0  0  0  0  0
   18.4437  -19.5971    0.0000 C   0  0  0  0  0  0  0  0  0  0  0  0
   17.2919  -21.5921    0.0000 C   0  0  0  0  0  0  0  0  0  0  0  0
   17.2919  -20.2621    0.0000 C   0  0  0  0  0  0  0  0  0  0  0  0
   20.7474  -19.5971    0.0000 O   0  0  0  0  0  0  0  0  0  0  0  0
   23.0510  -19.5972    0.0000 C   0  0  0  0  0  0  0  0  0  0  0  0
   21.8992  -20.2621    0.0000 C   0  0  0  0  0  0  0  0  0  0  0  0
   24.2029  -20.2623    0.0000 C   0  0  0  0  0  0  0  0  0  0  0  0
   21.8992  -21.5922    0.0000 C   0  0  0  0  0  0  0  0  0  0  0  0
   24.2028  -21.5923    0.0000 C   0  0  0  0  0  0  0  0  0  0  0  0
   23.0509  -22.2572    0.0000 C   0  0  0  0  0  0  0  0  0  0  0  0
   25.3547  -19.5974    0.0000 C   0  0  0  0  0  0  0  0  0  0  0  0
   26.5065  -20.2625    0.0000 O   0  0  0  0  0  0  0  0  0  0  0  0
   25.3548  -18.2674    0.0000 O   0  0  0  0  0  0  0  0  0  0  0  0
  2  1  1  0  0  0  0
  3  1  2  0  0  0  0
  4  2  2  0  0  0  0
  5  3  1  0  0  0  0
  6  4  1  0  0  0  0
  6  5  2  0  0  0  0
  2  7  1  0  0  0  0
  9  8  1  0  0  0  0
 10  8  2  0  0  0  0
 11  9  2  0  0  0  0
 12 10  1  0  0  0  0
 13 11  1  0  0  0  0
 13 12  2  0  0  0  0
  9  7  1  0  0  0  0
 10 14  1  0  0  0  0
 14 15  1  0  0  0  0
 14 16  2  0  0  0  0
M  END
> <ID>
CHEBI:72631

> <NAME>
3-phenoxybenzoic acid

> <DEFINITION>
A phenoxybenzoic acid in which the phenoxy group is meta to the carboxy group. It is a metabolite of pyrethroid insecticides.

> <STAR>
3

> <SYNONYM>
meta-phenoxybenzoic acid; m-phenoxybenzoic acid; m-carboxydiphenyl ether; diphenyl ether 3-carboxylic acid; 3-PhOC6H4COOH; 3-PhOC6H4CO2H; 3-carboxydiphenyl ether; 3-carboxybiphenyl ether

> <IUPAC_NAME>
3-phenoxybenzoic acid

> <FORMULA>
C13H10O3

> <MASS>
214.21670

> <MONOISOTOPIC_MASS>
214.06299

> <CHARGE>
0

> <SMILES>
OC(=O)c1cccc(Oc2ccccc2)c1

> <INCHI>
InChI=1S/C13H10O3/c14-13(15)10-5-4-8-12(9-10)16-11-6-2-1-3-7-11/h1-9H,(H,14,15)

> <INCHIKEY>
NXTDJHZGHOFSQG-UHFFFAOYSA-N

> <CAS_REGISTRY_NUMBER>
3739-38-6

> <REAXYS_REGISTRY_NUMBER>
2105574

> <CHEMIDPLUS>
3739-38-6

> <HMDB_ACCESSION>
HMDB0041807

> <PUBMED_CITATION>
19081088; 19458958; 19853000; 21238715; 21571933; 21717113; 23146693; 23226289; 6114835; 6114836; 8409231

$$$$

Marvin  03201309212D          

 32 35  0  0  0  0            999 V2000
   13.8041   -5.9440    0.0000 C   0  0  0  0  0  0  0  0  0  0  0  0
   13.8041   -6.7690    0.0000 C   0  0  0  0  0  0  0  0  0  0  0  0
   13.0896   -5.5315    0.0000 C   0  0  0  0  0  0  0  0  0  0  0  0
   13.0896   -7.1815    0.0000 C   0  0  0  0  0  0  0  0  0  0  0  0
   12.3751   -5.9440    0.0000 C   0  0  0  0  0  0  0  0  0  0  0  0
   12.3751   -6.7690    0.0000 C   0  0  0  0  0  0  0  0  0  0  0  0
   15.2331   -5.9440    0.0000 C   0  0  0  0  0  0  0  0  0  0  0  0
   15.2331   -6.7690    0.0000 C   0  0  0  0  0  0  0  0  0  0  0  0
   14.5186   -5.5315    0.0000 N   0  3  0  0  0  0  0  0  0  0  0  0
   14.5186   -7.1815    0.0000 C   0  0  0  0  0  0  0  0  0  0  0  0
   14.5185   -8.0065    0.0000 C   0  0  0  0  0  0  0  0  0  0  0  0
   15.2330   -8.4190    0.0000 C   0  0  0  0  0  0  0  0  0  0  0  0
   15.2330   -9.2441    0.0000 C   0  0  0  0  0  0  0  0  0  0  0  0
   15.9475   -9.6566    0.0000 C   0  0  0  0  0  0  0  0  0  0  0  0
   16.7011   -9.3211    0.0000 C   0  0  0  0  0  0  0  0  0  0  0  0
   16.0337  -10.4771    0.0000 N   0  0  0  0  0  0  0  0  0  0  0  0
   17.2531   -9.9342    0.0000 C   0  0  0  0  0  0  0  0  0  0  0  0
   16.8408  -10.6487    0.0000 C   0  0  0  0  0  0  0  0  0  0  0  0
   18.0781   -9.9341    0.0000 C   0  0  0  0  0  0  0  0  0  0  0  0
   18.4906  -10.6486    0.0000 C   0  0  0  0  0  0  0  0  0  0  0  0
   17.2533  -11.3630    0.0000 C   0  0  0  0  0  0  0  0  0  0  0  0
   18.0781  -11.3630    0.0000 C   0  0  0  0  0  0  0  0  0  0  0  0
   17.2786   -8.7123    0.0000 C   0  0  0  0  0  0  0  0  0  0  0  0
   16.4891   -8.5416    0.0000 C   0  0  0  0  0  0  0  0  0  0  0  0
   15.4206  -11.0292    0.0000 C   0  0  0  0  0  0  0  0  0  0  0  0
   14.5185   -4.7065    0.0000 C   0  0  0  0  0  0  0  0  0  0  0  0
   15.2330   -4.2940    0.0000 C   0  0  0  0  0  0  0  0  0  0  0  0
   15.2330   -3.4690    0.0000 C   0  0  0  0  0  0  0  0  0  0  0  0
   15.9475   -3.0565    0.0000 S   0  0  0  0  0  0  0  0  0  0  0  0
   15.5350   -2.3420    0.0000 O   0  0  0  0  0  0  0  0  0  0  0  0
   16.3600   -3.7710    0.0000 O   0  0  0  0  0  0  0  0  0  0  0  0
   16.6619   -2.6440    0.0000 O   0  5  0  0  0  0  0  0  0  0  0  0
  3  1  2  0  0  0  0
  4  2  2  0  0  0  0
  5  3  1  0  0  0  0
  6  4  1  0  0  0  0
  6  5  2  0  0  0  0
  8  7  1  0  0  0  0
  9  7  2  0  0  0  0
 10  8  2  0  0  0  0
  1  9  1  0  0  0  0
  2 10  1  0  0  0  0
  2  1  1  0  0  0  0
 10 11  1  0  0  0  0
 11 12  2  0  0  0  0
 12 13  1  0  0  0  0
 15 14  1  0  0  0  0
 16 14  1  0  0  0  0
 17 15  1  0  0  0  0
 18 16  1  0  0  0  0
 13 14  2  0  0  0  0
 19 17  1  0  0  0  0
 18 17  2  0  0  0  0
 20 19  2  0  0  0  0
 21 18  1  0  0  0  0
 22 20  1  0  0  0  0
 22 21  2  0  0  0  0
 23 15  1  0  0  0  0
 24 15  1  0  0  0  0
 16 25  1  0  0  0  0
  9 26  1  0  0  0  0
 26 27  1  0  0  0  0
 27 28  1  0  0  0  0
 30 29  2  0  0  0  0
 31 29  2  0  0  0  0
 32 29  1  0  0  0  0
 28 29  1  0  0  0  0
M  CHG  2   9   1  32  -1
M  END
> <ID>
CHEBI:72811

> <NAME>
dimethylindole red

> <DEFINITION>
A fluorogenic cyanine dye in which N-(3-sulfopropyl)quinolinium is linked to a 1,3,3-trimethyldihydroindole via a propan-1-yl-3-ylidene chain to form a conjugated system.

> <STAR>
3

> <SYNONYM>
DIR; 1-(3-sulfopropyl)-4-[(1E,3E)-3-(1,3,3-trimethyl-1,3-dihydro-2H-indol-2-ylidene)prop-1-en-1-yl]quinolinium

> <IUPAC_NAME>
3-{4-[(1E,3E)-3-(1,3,3-trimethyl-1,3-dihydro-2H-indol-2-ylidene)prop-1-en-1-yl]quinolinium-1-yl}propane-1-sulfonate

> <FORMULA>
C26H28N2O3S

> <MASS>
448.57700

> <MONOISOTOPIC_MASS>
448.18206

> <CHARGE>
0

> <SMILES>
CN1c2ccccc2C(C)(C)\C1=C/C=C/c1cc[n+](CCCS([O-])(=O)=O)c2ccccc12

> <INCHI>
InChI=1S/C26H28N2O3S/c1-26(2)22-12-5-7-14-24(22)27(3)25(26)15-8-10-20-16-18-28(17-9-19-32(29,30)31)23-13-6-4-11-21(20)23/h4-8,10-16,18H,9,17,19H2,1-3H3

> <INCHIKEY>
NTABMUJQZABQGD-UHFFFAOYSA-N

> <REAXYS_REGISTRY_NUMBER>
18882060

> <PDBECHEM_ACCESSION>
DIW

> <PUBMED_CITATION>
22390683

$$$$

Marvin  03261312452D          

 32 34  0  0  1  0            999 V2000
   28.2639  -54.2004    0.0000 C   0  0  0  0  0  0  0  0  0  0  0  0
   27.5494  -53.7879    0.0000 C   0  0  1  0  0  0  0  0  0  0  0  0
   28.2639  -55.0254    0.0000 O   0  0  0  0  0  0  0  0  0  0  0  0
   26.8350  -54.2004    0.0000 C   0  0  0  0  0  0  0  0  0  0  0  0
   27.5494  -52.9629    0.0000 N   0  0  0  0  0  0  0  0  0  0  0  0
   28.9784  -53.7879    0.0000 N   0  0  0  0  0  0  0  0  0  0  0  0
   28.2639  -52.5504    0.0000 C   0  0  0  0  0  0  0  0  0  0  0  0
   28.2639  -51.7254    0.0000 O   0  0  0  0  0  0  0  0  0  0  0  0
   28.9784  -52.9629    0.0000 C   0  0  0  0  0  0  0  0  0  0  0  0
   26.1205  -53.7879    0.0000 C   0  0  0  0  0  0  0  0  0  0  0  0
   25.4060  -54.2004    0.0000 C   0  0  0  0  0  0  0  0  0  0  0  0
   26.1205  -52.9628    0.0000 C   0  0  0  0  0  0  0  0  0  0  0  0
   24.6915  -53.7878    0.0000 C   0  0  0  0  0  0  0  0  0  0  0  0
   25.4060  -52.5503    0.0000 C   0  0  0  0  0  0  0  0  0  0  0  0
   24.6916  -52.9628    0.0000 C   0  0  0  0  0  0  0  0  0  0  0  0
   29.6932  -55.0252    0.0000 C   0  0  0  0  0  0  0  0  0  0  0  0
   30.4078  -55.4375    0.0000 N   0  0  0  0  0  0  0  0  0  0  0  0
   29.6929  -54.2002    0.0000 C   0  0  2  0  0  0  0  0  0  0  0  0
   30.4073  -53.7875    0.0000 C   0  0  0  0  0  0  0  0  0  0  0  0
   30.4074  -52.9625    0.0000 C   0  0  0  0  0  0  0  0  0  0  0  0
   31.0201  -52.4101    0.0000 N   0  0  0  0  0  0  0  0  0  0  0  0
   30.6840  -51.6567    0.0000 C   0  0  0  0  0  0  0  0  0  0  0  0
   29.8636  -51.7434    0.0000 N   0  0  0  0  0  0  0  0  0  0  0  0
   29.6926  -52.5506    0.0000 C   0  0  0  0  0  0  0  0  0  0  0  0
   28.9788  -55.4380    0.0000 O   0  0  0  0  0  0  0  0  0  0  0  0
   31.8760  -55.3607    0.0000 C   0  0  0  0  0  0  0  0  0  0  0  0
   31.8760  -54.5357    0.0000 O   0  0  0  0  0  0  0  0  0  0  0  0
   31.1614  -55.7732    0.0000 C   0  0  1  0  0  0  0  0  0  0  0  0
   29.8558  -56.0507    0.0000 C   0  0  0  0  0  0  0  0  0  0  0  0
   30.2683  -56.7651    0.0000 C   0  0  0  0  0  0  0  0  0  0  0  0
   31.0752  -56.5936    0.0000 C   0  0  0  0  0  0  0  0  0  0  0  0
   32.5904  -55.7732    0.0000 O   0  0  0  0  0  0  0  0  0  0  0  0
  1  2  1  0  0  0  0
  1  3  2  0  0  0  0
  2  4  1  0  0  0  0
  2  5  1  1  0  0  0
  6  1  1  0  0  0  0
  8  7  2  0  0  0  0
  9  7  1  0  0  0  0
  5  7  1  0  0  0  0
 11 10  1  0  0  0  0
 12 10  2  0  0  0  0
 13 11  2  0  0  0  0
 14 12  1  0  0  0  0
 15 13  1  0  0  0  0
 15 14  2  0  0  0  0
  4 10  1  0  0  0  0
 16 17  1  0  0  0  0
 16 18  1  0  0  0  0
 18 19  1  0  0  0  0
 18  6  1  1  0  0  0
 19 20  1  0  0  0  0
 20 21  1  0  0  0  0
 20 24  2  0  0  0  0
 21 22  2  0  0  0  0
 22 23  1  0  0  0  0
 23 24  1  0  0  0  0
 25 16  2  0  0  0  0
 26 27  2  0  0  0  0
 26 28  1  0  0  0  0
 28 17  1  1  0  0  0
 28 31  1  0  0  0  0
 17 29  1  0  0  0  0
 29 30  1  0  0  0  0
 30 31  1  0  0  0  0
 32 26  1  0  0  0  0
M  END
> <ID>
CHEBI:73015

> <NAME>
Ac-D-Phe-His-D-Pro

> <DEFINITION>
A tripeptide comprising N2-acetyl-D-phenylalanine, L-histidine and D-proline residues coupled in sequence.

> <STAR>
3

> <SYNONYM>
N-ACETYL-D-PHE-L-HIS-D-PRO-OH; Ac-fHp-OH

> <IUPAC_NAME>
N-acetyl-D-phenylalanyl-L-histidyl-D-proline

> <FORMULA>
C22H27N5O5

> <MASS>
441.48030

> <MONOISOTOPIC_MASS>
441.20122

> <CHARGE>
0

> <SMILES>
CC(=O)N[C@H](Cc1ccccc1)C(=O)N[C@@H](Cc1c[nH]cn1)C(=O)N1CCC[C@@H]1C(O)=O

> <INCHI>
InChI=1S/C22H27N5O5/c1-14(28)25-17(10-15-6-3-2-4-7-15)20(29)26-18(11-16-12-23-13-24-16)21(30)27-9-5-8-19(27)22(31)32/h2-4,6-7,12-13,17-19H,5,8-11H2,1H3,(H,23,24)(H,25,28)(H,26,29)(H,31,32)/t17-,18+,19-/m1/s1

> <INCHIKEY>
NFDVBRYUYXDEQO-CEXWTWQISA-N

> <PDB_ACCESSION>
1MCI

> <PUBMED_CITATION>
8346191

$$$$

Marvin  03261314252D          

 30 31  0  0  1  0            999 V2000
    3.5608  -54.3978    0.0000 C   0  0  0  0  0  0  0  0  0  0  0  0
    6.4187  -54.3978    0.0000 C   0  0  0  0  0  0  0  0  0  0  0  0
    3.5608  -55.2228    0.0000 O   0  0  0  0  0  0  0  0  0  0  0  0
    4.2753  -53.9853    0.0000 C   0  0  0  0  0  0  0  0  0  0  0  0
    6.4187  -55.2228    0.0000 O   0  0  0  0  0  0  0  0  0  0  0  0
    4.9898  -54.3978    0.0000 C   0  0  0  0  0  0  0  0  0  0  0  0
    5.7042  -53.8760    0.0000 C   0  0  1  0  0  0  0  0  0  0  0  0
    7.1332  -53.9853    0.0000 N   0  0  0  0  0  0  0  0  0  0  0  0
    2.8463  -53.9853    0.0000 O   0  0  0  0  0  0  0  0  0  0  0  0
    5.7042  -53.0510    0.0000 N   0  0  0  0  0  0  0  0  0  0  0  0
    4.9897  -52.6385    0.0000 C   0  0  0  0  0  0  0  0  0  0  0  0
    4.9897  -51.8135    0.0000 O   0  0  0  0  0  0  0  0  0  0  0  0
    4.2752  -53.0510    0.0000 C   0  0  0  0  0  0  0  0  0  0  0  0
    7.8479  -55.2226    0.0000 C   0  0  0  0  0  0  0  0  0  0  0  0
    8.5626  -55.6349    0.0000 N   0  0  0  0  0  0  0  0  0  0  0  0
    7.8477  -54.3976    0.0000 C   0  0  2  0  0  0  0  0  0  0  0  0
    8.5621  -53.9849    0.0000 C   0  0  0  0  0  0  0  0  0  0  0  0
    8.5622  -53.1599    0.0000 C   0  0  0  0  0  0  0  0  0  0  0  0
    9.1749  -52.6075    0.0000 N   0  0  0  0  0  0  0  0  0  0  0  0
    8.8388  -51.8540    0.0000 C   0  0  0  0  0  0  0  0  0  0  0  0
    8.0184  -51.9408    0.0000 N   0  0  0  0  0  0  0  0  0  0  0  0
    7.8474  -52.7480    0.0000 C   0  0  0  0  0  0  0  0  0  0  0  0
    7.1336  -55.6353    0.0000 O   0  0  0  0  0  0  0  0  0  0  0  0
   10.0307  -55.5580    0.0000 C   0  0  0  0  0  0  0  0  0  0  0  0
   10.0307  -54.7330    0.0000 O   0  0  0  0  0  0  0  0  0  0  0  0
    9.3162  -55.9705    0.0000 C   0  0  1  0  0  0  0  0  0  0  0  0
    8.0105  -56.2481    0.0000 C   0  0  0  0  0  0  0  0  0  0  0  0
    8.4230  -56.9625    0.0000 C   0  0  0  0  0  0  0  0  0  0  0  0
    9.2300  -56.7910    0.0000 C   0  0  0  0  0  0  0  0  0  0  0  0
   10.7452  -55.9705    0.0000 N   0  0  0  0  0  0  0  0  0  0  0  0
  1  3  2  0  0  0  0
  1  4  1  0  0  0  0
  2  7  1  0  0  0  0
  2  5  2  0  0  0  0
  2  8  1  0  0  0  0
  4  6  1  0  0  0  0
  6  7  1  0  0  0  0
  9  1  1  0  0  0  0
  7 10  1  1  0  0  0
 12 11  2  0  0  0  0
 13 11  1  0  0  0  0
 10 11  1  0  0  0  0
 14 15  1  0  0  0  0
 14 16  1  0  0  0  0
 16 17  1  0  0  0  0
 16  8  1  1  0  0  0
 17 18  1  0  0  0  0
 18 19  1  0  0  0  0
 18 22  2  0  0  0  0
 19 20  2  0  0  0  0
 20 21  1  0  0  0  0
 21 22  1  0  0  0  0
 23 14  2  0  0  0  0
 24 25  2  0  0  0  0
 24 26  1  0  0  0  0
 26 15  1  1  0  0  0
 26 29  1  0  0  0  0
 15 27  1  0  0  0  0
 27 28  1  0  0  0  0
 28 29  1  0  0  0  0
 30 24  1  0  0  0  0
M  END
> <ID>
CHEBI:73019

> <NAME>
Ac-D-Glu-His-D-Pro-NH2

> <DEFINITION>
A tripeptide comprising N2-acetyl-D-glutamic acid, L-histidine and D-prolinamide residues coupled in sequence.

> <STAR>
3

> <SYNONYM>
N-ACETYL-D-GLU-L-HIS-D-PRO-NH2; Ac-eHp-NH2

> <IUPAC_NAME>
N-acetyl-D-alpha-glutamyl-L-histidyl-D-prolinamide

> <FORMULA>
C18H26N6O6

> <MASS>
422.43560

> <MONOISOTOPIC_MASS>
422.19138

> <CHARGE>
0

> <SMILES>
CC(=O)N[C@H](CCC(O)=O)C(=O)N[C@@H](Cc1c[nH]cn1)C(=O)N1CCC[C@@H]1C(N)=O

> <INCHI>
InChI=1S/C18H26N6O6/c1-10(25)22-12(4-5-15(26)27)17(29)23-13(7-11-8-20-9-21-11)18(30)24-6-2-3-14(24)16(19)28/h8-9,12-14H,2-7H2,1H3,(H2,19,28)(H,20,21)(H,22,25)(H,23,29)(H,26,27)/t12-,13+,14-/m1/s1

> <INCHIKEY>
JCOBWZIPFAGSBU-HZSPNIEDSA-N

> <PDB_ACCESSION>
1MCK

> <PUBMED_CITATION>
8346191

$$$$

Marvin  03261315282D          

 21 22  0  0  1  0            999 V2000
   20.4134  -61.9779    0.0000 C   0  0  0  0  0  0  0  0  0  0  0  0
   20.4134  -61.1529    0.0000 O   0  0  0  0  0  0  0  0  0  0  0  0
   19.6990  -62.3905    0.0000 C   0  0  2  0  0  0  0  0  0  0  0  0
   18.9845  -61.9781    0.0000 C   0  0  0  0  0  0  0  0  0  0  0  0
   19.6990  -63.2155    0.0000 N   0  0  0  0  0  0  0  0  0  0  0  0
   18.2699  -62.3904    0.0000 C   0  0  0  0  0  0  0  0  0  0  0  0
   17.4852  -62.1358    0.0000 N   0  0  0  0  0  0  0  0  0  0  0  0
   17.0006  -62.8035    0.0000 C   0  0  0  0  0  0  0  0  0  0  0  0
   17.4859  -63.4707    0.0000 N   0  0  0  0  0  0  0  0  0  0  0  0
   18.2704  -63.2154    0.0000 C   0  0  0  0  0  0  0  0  0  0  0  0
   21.1279  -62.3904    0.0000 N   0  0  0  0  0  0  0  0  0  0  0  0
   22.1676  -61.3509    0.0000 C   0  0  0  0  0  0  0  0  0  0  0  0
   21.6156  -60.7378    0.0000 O   0  0  0  0  0  0  0  0  0  0  0  0
   21.9126  -62.1355    0.0000 C   0  0  1  0  0  0  0  0  0  0  0  0
   21.1279  -63.2154    0.0000 C   0  0  0  0  0  0  0  0  0  0  0  0
   21.9126  -63.4704    0.0000 C   0  0  0  0  0  0  0  0  0  0  0  0
   22.3975  -62.8029    0.0000 C   0  0  0  0  0  0  0  0  0  0  0  0
   22.9746  -61.1794    0.0000 N   0  0  0  0  0  0  0  0  0  0  0  0
   19.2035  -63.9221    0.0000 C   0  0  0  0  0  0  0  0  0  0  0  0
   19.5515  -64.6700    0.0000 C   0  0  0  0  0  0  0  0  0  0  0  0
   18.3817  -63.8495    0.0000 O   0  0  0  0  0  0  0  0  0  0  0  0
  1  2  2  0  0  0  0
  1  3  1  0  0  0  0
  3  4  1  0  0  0  0
  3  5  1  1  0  0  0
  4  6  1  0  0  0  0
  6  7  1  0  0  0  0
  6 10  2  0  0  0  0
  7  8  2  0  0  0  0
  8  9  1  0  0  0  0
  9 10  1  0  0  0  0
 11  1  1  0  0  0  0
 12 13  2  0  0  0  0
 12 14  1  0  0  0  0
 14 11  1  1  0  0  0
 14 17  1  0  0  0  0
 11 15  1  0  0  0  0
 15 16  1  0  0  0  0
 16 17  1  0  0  0  0
 18 12  1  0  0  0  0
  5 19  1  0  0  0  0
 19 20  1  0  0  0  0
 19 21  2  0  0  0  0
M  END
> <ID>
CHEBI:73022

> <NAME>
Ac-His-D-Pro-NH2

> <DEFINITION>
A dipeptide that is the N1-(Nα-acetyl-L-histidyl) derivative of D-prolinamide.

> <STAR>
3

> <SYNONYM>
N-ACETYL-L-HIS-D-PRO-NH2; Ac-Hp-NH2

> <IUPAC_NAME>
N(alpha)-acetyl-L-histidyl-D-prolinamide

> <FORMULA>
C13H19N5O3

> <MASS>
293.32170

> <MONOISOTOPIC_MASS>
293.14879

> <CHARGE>
0

> <SMILES>
CC(=O)N[C@@H](Cc1c[nH]cn1)C(=O)N1CCC[C@@H]1C(N)=O

> <INCHI>
InChI=1S/C13H19N5O3/c1-8(19)17-10(5-9-6-15-7-16-9)13(21)18-4-2-3-11(18)12(14)20/h6-7,10-11H,2-5H2,1H3,(H2,14,20)(H,15,16)(H,17,19)/t10-,11+/m0/s1

> <INCHIKEY>
SWBJFMHHQOBNAT-WDEREUQCSA-N

> <PDB_ACCESSION>
1MCQ

> <PUBMED_CITATION>
8346191

$$$$

Marvin  03261315352D          

 21 22  0  0  1  0            999 V2000
   20.4134  -61.9779    0.0000 C   0  0  0  0  0  0  0  0  0  0  0  0
   20.4134  -61.1529    0.0000 O   0  0  0  0  0  0  0  0  0  0  0  0
   19.6990  -62.3905    0.0000 C   0  0  2  0  0  0  0  0  0  0  0  0
   18.9845  -61.9781    0.0000 C   0  0  0  0  0  0  0  0  0  0  0  0
   19.6990  -63.2155    0.0000 N   0  0  0  0  0  0  0  0  0  0  0  0
   18.2699  -62.3904    0.0000 C   0  0  0  0  0  0  0  0  0  0  0  0
   17.4852  -62.1358    0.0000 N   0  0  0  0  0  0  0  0  0  0  0  0
   17.0006  -62.8035    0.0000 C   0  0  0  0  0  0  0  0  0  0  0  0
   17.4859  -63.4707    0.0000 N   0  0  0  0  0  0  0  0  0  0  0  0
   18.2704  -63.2154    0.0000 C   0  0  0  0  0  0  0  0  0  0  0  0
   21.1279  -62.3904    0.0000 N   0  0  0  0  0  0  0  0  0  0  0  0
   22.1676  -61.3509    0.0000 C   0  0  0  0  0  0  0  0  0  0  0  0
   21.6156  -60.7378    0.0000 O   0  0  0  0  0  0  0  0  0  0  0  0
   21.9126  -62.1355    0.0000 C   0  0  1  0  0  0  0  0  0  0  0  0
   21.1279  -63.2154    0.0000 C   0  0  0  0  0  0  0  0  0  0  0  0
   21.9126  -63.4704    0.0000 C   0  0  0  0  0  0  0  0  0  0  0  0
   22.3975  -62.8029    0.0000 C   0  0  0  0  0  0  0  0  0  0  0  0
   22.9746  -61.1794    0.0000 N   0  0  0  0  0  0  0  0  0  0  0  0
   19.2035  -63.9221    0.0000 C   0  0  0  0  0  0  0  0  0  0  0  0
   19.5515  -64.6700    0.0000 C   0  0  0  0  0  0  0  0  0  0  0  0
   18.3817  -63.8495    0.0000 O   0  0  0  0  0  0  0  0  0  0  0  0
  1  2  2  0  0  0  0
  1  3  1  0  0  0  0
  3  4  1  0  0  0  0
  3  5  1  1  0  0  0
  4  6  1  0  0  0  0
  6  7  1  0  0  0  0
  6 10  2  0  0  0  0
  7  8  2  0  0  0  0
  8  9  1  0  0  0  0
  9 10  1  0  0  0  0
 11  1  1  0  0  0  0
 12 13  2  0  0  0  0
 12 14  1  0  0  0  0
 14 11  1  1  0  0  0
 14 17  1  0  0  0  0
 11 15  1  0  0  0  0
 15 16  1  0  0  0  0
 16 17  1  0  0  0  0
 18 12  1  0  0  0  0
  5 19  1  0  0  0  0
 19 20  1  0  0  0  0
 19 21  2  0  0  0  0
M  END
> <ID>
CHEBI:73023

> <NAME>
Ac-His-D-Pro

> <DEFINITION>
A dipeptide that is the N1-(Nα-acetyl-L-histidyl) derivative of D-proline.

> <STAR>
3

> <SYNONYM>
N-ACETYL-L-HIS-D-PRO-OH; Ac-Hp-OH

> <IUPAC_NAME>
N(alpha)-acetyl-L-histidyl-D-proline

> <FORMULA>
C13H19N5O3

> <MASS>
293.32170

> <MONOISOTOPIC_MASS>
293.14879

> <CHARGE>
0

> <SMILES>
CC(=O)N[C@@H](Cc1c[nH]cn1)C(=O)N1CCC[C@@H]1C(N)=O

> <INCHI>
InChI=1S/C13H19N5O3/c1-8(19)17-10(5-9-6-15-7-16-9)13(21)18-4-2-3-11(18)12(14)20/h6-7,10-11H,2-5H2,1H3,(H2,14,20)(H,15,16)(H,17,19)/t10-,11+/m0/s1

> <INCHIKEY>
SWBJFMHHQOBNAT-WDEREUQCSA-N

> <PDB_ACCESSION>
1MCR

> <PUBMED_CITATION>
8346191

$$$$

Marvin  10070816412D          

 24 28  0  0  0  0            999 V2000
    0.0000    0.8250    0.0000 C   0  0  0  0  0  0  0  0  0  0  0  0
   -0.7145    0.4125    0.0000 C   0  0  0  0  0  0  0  0  0  0  0  0
   -0.7144    2.0625    0.0000 C   0  0  0  0  0  0  0  0  0  0  0  0
   -1.4289    1.6501    0.0000 C   0  0  0  0  0  0  0  0  0  0  0  0
   -1.4289    0.8250    0.0000 C   0  0  0  0  0  0  0  0  0  0  0  0
    0.0000    1.6500    0.0000 C   0  0  0  0  0  0  0  0  0  0  0  0
   -1.4289   -0.8250    0.0000 C   0  0  1  0  0  0  0  0  0  0  0  0
   -1.4289   -1.6501    0.0000 C   0  0  0  0  0  0  0  0  0  0  0  0
   -0.7144   -2.0625    0.0000 C   0  0  0  0  0  0  0  0  0  0  0  0
    0.0000   -1.6500    0.0000 C   0  0  0  0  0  0  0  0  0  0  0  0
    0.7145   -0.4125    0.0000 C   0  0  1  0  0  0  0  0  0  0  0  0
    1.4290   -0.8250    0.0000 N   0  0  0  0  0  0  0  0  0  0  0  0
    0.0000   -0.8250    0.0000 C   0  0  2  0  0  0  0  0  0  0  0  0
    0.7145   -1.2375    0.0000 O   0  0  0  0  0  0  0  0  0  0  0  0
    0.7144    0.4125    0.0000 C   0  0  0  0  0  0  0  0  0  0  0  0
   -0.7145   -0.4125    0.0000 C   0  0  1  0  0  0  0  0  0  0  0  0
    0.0000    0.0000    0.0000 C   0  0  0  0  0  0  0  0  0  0  0  0
    1.4435    0.0000    0.0000 C   0  0  0  0  0  0  0  0  0  0  0  0
   -2.1434   -2.0626    0.0000 O   0  0  0  0  0  0  0  0  0  0  0  0
   -1.9621    0.0410    0.0000 O   0  0  0  0  0  0  0  0  0  0  0  0
   -2.1434    2.0626    0.0000 O   0  0  0  0  0  0  0  0  0  0  0  0
    2.2540   -0.8250    0.0000 C   0  0  0  0  0  0  0  0  0  0  0  0
    2.8374   -1.4084    0.0000 C   0  0  0  0  0  0  0  0  0  0  0  0
    3.6624   -1.4084    0.0000 C   0  0  0  0  0  0  0  0  0  0  0  0
 13 11  1  0  0  0  0
 15  1  1  0  0  0  0
  2 16  1  0  0  0  0
  1  6  2  0  0  0  0
  2  1  1  0  0  0  0
  5  2  2  0  0  0  0
  3  4  2  0  0  0  0
  3  6  1  0  0  0  0
  4  5  1  0  0  0  0
 10 13  1  0  0  0  0
 16 13  1  0  0  0  0
 16  7  1  0  0  0  0
  7  8  1  0  0  0  0
  8  9  1  0  0  0  0
  9 10  1  0  0  0  0
 11 12  1  1  0  0  0
 12 18  1  0  0  0  0
 13 14  1  1  0  0  0
 11 15  1  0  0  0  0
 16 17  1  1  0  0  0
 17 18  1  0  0  0  0
  8 19  2  0  0  0  0
  5 20  1  0  0  0  0
  7 20  1  6  0  0  0
  4 21  1  0  0  0  0
 12 22  1  0  0  0  0
 22 23  1  0  0  0  0
 23 24  2  0  0  0  0
M  END
> <ID>
CHEBI:7459

> <NAME>
naloxone

> <DEFINITION>
A synthetic morphinane alkaloid that is morphinone in which the enone double bond has been reduced to a single bond, the hydrogen at position 14 has been replaced by a hydroxy group, and the methyl group attached to the nitrogen has been replaced by an allyl group. A specific opioid antagonist, it is used (commonly as its hydrochloride salt) to reverse the effects of opioids, both following their use of opioids during surgery and in cases of known or suspected opioid overdose.

> <STAR>
3

> <SYNONYM>
17-allyl-3,14-dihydroxy-4,5alpha-epoxymorphinan-6-one; 1-N-Allyl-14-hydroxynordihydromorphinone; (-)-naloxone

> <IUPAC_NAME>
3,14-dihydroxy-17-(prop-2-en-1-yl)-4,5alpha-epoxymorphinan-6-one

> <INN>
naloxonum; naloxone; naloxone; naloxona

> <FORMULA>
C19H21NO4

> <MASS>
327.37430

> <MONOISOTOPIC_MASS>
327.14706

> <CHARGE>
0

> <SMILES>
Oc1ccc2C[C@H]3N(CC[C@@]45[C@@H](Oc1c24)C(=O)CC[C@@]35O)CC=C

> <INCHI>
InChI=1S/C19H21NO4/c1-2-8-20-9-7-18-15-11-3-4-12(21)16(15)24-17(18)13(22)5-6-19(18,23)14(20)10-11/h2-4,14,17,21,23H,1,5-10H2/t14-,17+,18+,19-/m1/s1

> <INCHIKEY>
UZHSEJADLWPNLE-GRGSLBFTSA-N

> <BEILSTEIN_REGISTRY_NUMBER>
1089071

> <CAS_REGISTRY_NUMBER>
465-65-6

> <REAXYS_REGISTRY_NUMBER>
1089071

> <CHEMIDPLUS>
465-65-6

> <DRUGBANK_ACCESSION>
DB01183

> <HMDB_ACCESSION>
HMDB0015314

> <KEGG_COMPOUND_ACCESSION>
C07252

> <KEGG_DRUG_ACCESSION>
D08249

> <LINCS_ACCESSION>
LSM-3504

> <NIST_CHEMISTRY_WEBBOOK>
465-65-6

> <WIKIPEDIA_ACCESSION>
Naloxone

> <PUBMED_CITATION>
17023477; 24868924; 25468814; 26469689; 26604818; 26634308

$$$$

Marvin  12080815032D          

 25 30  0  0  0  0            999 V2000
    0.0000    0.8250    0.0000 C   0  0  0  0  0  0  0  0  0  0  0  0
   -0.7145    0.4125    0.0000 C   0  0  0  0  0  0  0  0  0  0  0  0
   -0.7144    2.0625    0.0000 C   0  0  0  0  0  0  0  0  0  0  0  0
   -1.4289    1.6501    0.0000 C   0  0  0  0  0  0  0  0  0  0  0  0
   -1.4289    0.8250    0.0000 C   0  0  0  0  0  0  0  0  0  0  0  0
    0.0000    1.6500    0.0000 C   0  0  0  0  0  0  0  0  0  0  0  0
   -1.4289   -0.8250    0.0000 C   0  0  1  0  0  0  0  0  0  0  0  0
   -1.4289   -1.6501    0.0000 C   0  0  0  0  0  0  0  0  0  0  0  0
   -0.7144   -2.0625    0.0000 C   0  0  0  0  0  0  0  0  0  0  0  0
    0.0000   -1.6500    0.0000 C   0  0  0  0  0  0  0  0  0  0  0  0
    0.7145   -0.4125    0.0000 C   0  0  1  0  0  0  0  0  0  0  0  0
    1.4290   -0.8250    0.0000 N   0  0  0  0  0  0  0  0  0  0  0  0
    0.0000   -0.8250    0.0000 C   0  0  2  0  0  0  0  0  0  0  0  0
    0.7145   -1.2375    0.0000 O   0  0  0  0  0  0  0  0  0  0  0  0
    0.7144    0.4125    0.0000 C   0  0  0  0  0  0  0  0  0  0  0  0
   -0.7145   -0.4125    0.0000 C   0  0  1  0  0  0  0  0  0  0  0  0
    0.0000    0.0000    0.0000 C   0  0  0  0  0  0  0  0  0  0  0  0
    1.4435    0.0000    0.0000 C   0  0  0  0  0  0  0  0  0  0  0  0
   -2.1434   -2.0626    0.0000 O   0  0  0  0  0  0  0  0  0  0  0  0
   -1.9621    0.0410    0.0000 O   0  0  0  0  0  0  0  0  0  0  0  0
   -2.1434    2.0626    0.0000 O   0  0  0  0  0  0  0  0  0  0  0  0
    2.2540   -0.8250    0.0000 C   0  0  0  0  0  0  0  0  0  0  0  0
    2.8374   -1.4084    0.0000 C   0  0  0  0  0  0  0  0  0  0  0  0
    3.0509   -2.2053    0.0000 C   0  0  0  0  0  0  0  0  0  0  0  0
    3.6343   -1.6219    0.0000 C   0  0  0  0  0  0  0  0  0  0  0  0
 13 11  1  0  0  0  0
 15  1  1  0  0  0  0
  2 16  1  0  0  0  0
  1  6  2  0  0  0  0
  2  1  1  0  0  0  0
  5  2  2  0  0  0  0
  3  4  2  0  0  0  0
  3  6  1  0  0  0  0
  4  5  1  0  0  0  0
 10 13  1  0  0  0  0
 16 13  1  0  0  0  0
 16  7  1  0  0  0  0
  7  8  1  0  0  0  0
  8  9  1  0  0  0  0
  9 10  1  0  0  0  0
 11 12  1  1  0  0  0
 12 18  1  0  0  0  0
 13 14  1  1  0  0  0
 11 15  1  0  0  0  0
 16 17  1  1  0  0  0
 17 18  1  0  0  0  0
  8 19  2  0  0  0  0
  5 20  1  0  0  0  0
  7 20  1  6  0  0  0
  4 21  1  0  0  0  0
 12 22  1  0  0  0  0
 22 23  1  0  0  0  0
 23 24  1  0  0  0  0
 23 25  1  0  0  0  0
 24 25  1  0  0  0  0
M  END
> <ID>
CHEBI:7465

> <NAME>
naltrexone

> <DEFINITION>
An  organic heteropentacyclic compound that is naloxone substituted in which the allyl group attached to the nitrogen is replaced by a cyclopropylmethyl group. A μ-opioid receptor antagonist, it is used to treat alcohol dependence.

> <STAR>
3

> <SYNONYM>
Naltrexone; N-Cyclopropylmethylnoroxymorphone; N-Cyclopropylmethyl-14-hydroxydihydromorphinone; 17-(Cyclopropylmethyl)-4,5alpha-epoxy-3,14-dihydroxymorphinan-6-one; 17-(Cyclopropylmethyl)-4,5-epoxy-3,14-dihydroxymorphinan-6-one

> <IUPAC_NAME>
3,14-dihydroxy-17-(cyclopropylmethyl)-4,5alpha-epoxymorphinan-6-one

> <INN>
naltrexone

> <FORMULA>
C20H23NO4

> <MASS>
341.40096

> <MONOISOTOPIC_MASS>
341.16271

> <CHARGE>
0

> <SMILES>
Oc1ccc2C[C@H]3N(CC[C@@]45[C@@H](Oc1c24)C(=O)CC[C@@]35O)CC1CC1

> <INCHI>
InChI=1S/C20H23NO4/c22-13-4-3-12-9-15-20(24)6-5-14(23)18-19(20,16(12)17(13)25-18)7-8-21(15)10-11-1-2-11/h3-4,11,15,18,22,24H,1-2,5-10H2/t15-,18+,19+,20-/m1/s1

> <INCHIKEY>
DQCKKXVULJGBQN-XFWGSAIBSA-N

> <BEILSTEIN_REGISTRY_NUMBER>
3596648

> <CAS_REGISTRY_NUMBER>
16590-41-3

> <REAXYS_REGISTRY_NUMBER>
3596648

> <CHEMIDPLUS>
16590-41-3

> <DRUGBANK_ACCESSION>
DB00704

> <HMDB_ACCESSION>
HMDB0014842

> <KEGG_COMPOUND_ACCESSION>
C07253

> <KEGG_DRUG_ACCESSION>
D05113

> <LINCS_ACCESSION>
LSM-3962

> <NIST_CHEMISTRY_WEBBOOK>
16590-41-3

> <WIKIPEDIA_ACCESSION>
Naltrexone

> <PUBMED_CITATION>
17023477; 24107112; 24659754; 27690505; 27700187; 27787292; 27813192; 27875802; 27922226; 27936293; 27987236; 28011389; 28029718; 28044452; 28061017; 28068780; 28106937; 28118565; 28130024; 28144772; 28153651; 28161142; 28168894; 28184294

$$$$

Marvin  07291323562D          

 22 23  0  0  1  0            999 V2000
   25.8018  -54.9694    0.0000 O   0  0  0  0  0  0  0  0  0  0  0  0
   23.6582  -57.8567    0.0000 C   0  0  1  0  0  0  0  0  0  0  0  0
   23.6582  -58.6818    0.0000 C   0  0  1  0  0  0  0  0  0  0  0  0
   22.9438  -57.4442    0.0000 O   0  0  0  0  0  0  0  0  0  0  0  0
   22.9438  -59.0943    0.0000 C   0  0  1  0  0  0  0  0  0  0  0  0
   22.2294  -57.8567    0.0000 C   0  0  2  0  0  0  0  0  0  0  0  0
   22.2293  -58.6818    0.0000 C   0  0  2  0  0  0  0  0  0  0  0  0
   24.3727  -57.4443    0.0000 O   0  0  0  0  0  0  0  0  0  0  0  0
   24.3726  -59.0943    0.0000 O   0  0  0  0  0  0  0  0  0  0  0  0
   22.9436  -59.9193    0.0000 O   0  0  0  0  0  0  0  0  0  0  0  0
   21.5148  -59.0942    0.0000 O   0  0  0  0  0  0  0  0  0  0  0  0
   21.5149  -57.4442    0.0000 C   0  0  0  0  0  0  0  0  0  0  0  0
   25.0873  -55.3819    0.0000 C   0  0  1  0  0  0  0  0  0  0  0  0
   25.0873  -56.2069    0.0000 C   0  0  1  0  0  0  0  0  0  0  0  0
   24.3728  -54.9694    0.0000 O   0  0  0  0  0  0  0  0  0  0  0  0
   24.3727  -56.6193    0.0000 C   0  0  2  0  0  0  0  0  0  0  0  0
   23.6584  -55.3818    0.0000 C   0  0  1  0  0  0  0  0  0  0  0  0
   23.6584  -56.2068    0.0000 C   0  0  1  0  0  0  0  0  0  0  0  0
   25.8017  -56.6195    0.0000 O   0  0  0  0  0  0  0  0  0  0  0  0
   22.9439  -56.6193    0.0000 O   0  0  0  0  0  0  0  0  0  0  0  0
   22.9440  -54.9693    0.0000 C   0  0  0  0  0  0  0  0  0  0  0  0
   22.2295  -55.3818    0.0000 O   0  0  0  0  0  0  0  0  0  0  0  0
  2  3  1  0  0  0  0
  2  4  1  0  0  0  0
  3  5  1  0  0  0  0
  4  6  1  0  0  0  0
  5  7  1  0  0  0  0
  6  7  1  0  0  0  0
  2  8  1  1  0  0  0
  3  9  1  6  0  0  0
  5 10  1  6  0  0  0
  7 11  1  1  0  0  0
  6 12  1  6  0  0  0
 13 14  1  0  0  0  0
 13 15  1  0  0  0  0
 14 16  1  0  0  0  0
 15 17  1  0  0  0  0
 16 18  1  0  0  0  0
 17 18  1  0  0  0  0
 13  1  1  1  0  0  0
 14 19  1  6  0  0  0
 16  8  1  1  0  0  0
 18 20  1  6  0  0  0
 17 21  1  1  0  0  0
 22 21  1  0  0  0  0
M  END
> <ID>
CHEBI:74983

> <NAME>
alpha-L-Rhap-(1->3)-beta-D-Glcp

> <DEFINITION>
A glycosylglucose in which the glycosyl moiety is L-rhamnose linked α to C-3 of β-D-glucose.

> <STAR>
3

> <SYNONYM>
alpha-L-rhamnosyl-(1->3)-beta-D-glucose; alpha-L-Rha-(1->3)-beta-D-Glc; 3-O-(alpha-L-rhamnopyranosyl)-beta-D-glucopyranose; 3-O-(6-deoxy-alpha-L-mannopyranosyl)-beta-D-glucopyranose

> <IUPAC_NAME>
6-deoxy-alpha-L-mannopyranosyl-(1->3)-beta-D-glucopyranose

> <FORMULA>
C12H22O10

> <MASS>
326.29710

> <MONOISOTOPIC_MASS>
326.12130

> <CHARGE>
0

> <SMILES>
C[C@@H]1O[C@@H](O[C@@H]2[C@@H](O)[C@H](O)O[C@H](CO)[C@H]2O)[C@H](O)[C@H](O)[C@H]1O

> <INCHI>
InChI=1S/C12H22O10/c1-3-5(14)7(16)8(17)12(20-3)22-10-6(15)4(2-13)21-11(19)9(10)18/h3-19H,2H2,1H3/t3-,4+,5-,6+,7+,8+,9+,10-,11+,12-/m0/s1

> <INCHIKEY>
HLLZGYFHHYGOLN-UYXQSHNKSA-N

> <PUBMED_CITATION>
23795894; 23836132; 27091615

$$$$

Marvin  07301300132D          

 45 48  0  0  1  0            999 V2000
   13.3656  -61.8756    0.0000 C   0  0  2  0  0  0  0  0  0  0  0  0
   13.3656  -62.7006    0.0000 C   0  0  2  0  0  0  0  0  0  0  0  0
   12.6510  -61.4631    0.0000 O   0  0  0  0  0  0  0  0  0  0  0  0
   12.6510  -63.1131    0.0000 C   0  0  2  0  0  0  0  0  0  0  0  0
   11.9366  -61.8756    0.0000 C   0  0  1  0  0  0  0  0  0  0  0  0
   11.9366  -62.7006    0.0000 C   0  0  1  0  0  0  0  0  0  0  0  0
   14.0800  -61.4631    0.0000 O   0  0  0  0  0  0  0  0  0  0  0  0
   14.0800  -63.1131    0.0000 O   0  0  0  0  0  0  0  0  0  0  0  0
   12.6510  -63.9381    0.0000 O   0  0  0  0  0  0  0  0  0  0  0  0
   11.2221  -63.1131    0.0000 O   0  0  0  0  0  0  0  0  0  0  0  0
   11.2221  -61.4631    0.0000 C   0  0  0  0  0  0  0  0  0  0  0  0
   10.5076  -61.8756    0.0000 O   0  0  0  0  0  0  0  0  0  0  0  0
   14.0800  -63.9381    0.0000 C   0  0  2  0  0  0  0  0  0  0  0  0
   14.7945  -64.3506    0.0000 C   0  0  2  0  0  0  0  0  0  0  0  0
   13.3655  -64.3506    0.0000 O   0  0  0  0  0  0  0  0  0  0  0  0
   14.7944  -65.1756    0.0000 C   0  0  2  0  0  0  0  0  0  0  0  0
   13.3655  -65.1756    0.0000 C   0  0  1  0  0  0  0  0  0  0  0  0
   14.0800  -65.5882    0.0000 C   0  0  1  0  0  0  0  0  0  0  0  0
   15.5090  -63.9381    0.0000 O   0  0  0  0  0  0  0  0  0  0  0  0
   15.5089  -65.5882    0.0000 O   0  0  0  0  0  0  0  0  0  0  0  0
   14.0800  -66.4132    0.0000 O   0  0  0  0  0  0  0  0  0  0  0  0
   12.6510  -65.5881    0.0000 C   0  0  0  0  0  0  0  0  0  0  0  0
   12.6510  -66.4131    0.0000 O   0  0  0  0  0  0  0  0  0  0  0  0
   16.2235  -64.3506    0.0000 C   0  0  2  0  0  0  0  0  0  0  0  0
   16.9380  -63.9381    0.0000 C   0  0  2  0  0  0  0  0  0  0  0  0
   16.2235  -65.1756    0.0000 O   0  0  0  0  0  0  0  0  0  0  0  0
   17.6524  -64.3506    0.0000 C   0  0  2  0  0  0  0  0  0  0  0  0
   16.9380  -65.5882    0.0000 C   0  0  1  0  0  0  0  0  0  0  0  0
   17.6524  -65.1756    0.0000 C   0  0  1  0  0  0  0  0  0  0  0  0
   16.9380  -63.1131    0.0000 O   0  0  0  0  0  0  0  0  0  0  0  0
   18.3669  -63.9381    0.0000 O   0  0  0  0  0  0  0  0  0  0  0  0
   18.3669  -65.5882    0.0000 O   0  0  0  0  0  0  0  0  0  0  0  0
   16.9380  -66.4132    0.0000 C   0  0  0  0  0  0  0  0  0  0  0  0
   17.6525  -66.8257    0.0000 O   0  0  0  0  0  0  0  0  0  0  0  0
   10.5076  -63.5256    0.0000 C   0  0  1  0  0  0  0  0  0  0  0  0
   10.5076  -64.3506    0.0000 C   0  0  1  0  0  0  0  0  0  0  0  0
    9.7931  -63.1131    0.0000 O   0  0  0  0  0  0  0  0  0  0  0  0
    9.7931  -64.7631    0.0000 C   0  0  2  0  0  0  0  0  0  0  0  0
    9.0786  -63.5256    0.0000 C   0  0  1  0  0  0  0  0  0  0  0  0
    9.0786  -64.3506    0.0000 C   0  0  2  0  0  0  0  0  0  0  0  0
   11.2221  -64.7631    0.0000 O   0  0  0  0  0  0  0  0  0  0  0  0
    9.7931  -65.5881    0.0000 O   0  0  0  0  0  0  0  0  0  0  0  0
    8.3641  -64.7631    0.0000 O   0  0  0  0  0  0  0  0  0  0  0  0
    8.3641  -63.1131    0.0000 C   0  0  0  0  0  0  0  0  0  0  0  0
    7.6497  -63.5256    0.0000 O   0  0  0  0  0  0  0  0  0  0  0  0
  1  2  1  0  0  0  0
  1  3  1  0  0  0  0
  2  4  1  0  0  0  0
  3  5  1  0  0  0  0
  4  6  1  0  0  0  0
  5  6  1  0  0  0  0
  1  7  1  6  0  0  0
  2  8  1  1  0  0  0
  4  9  1  1  0  0  0
  6 10  1  6  0  0  0
  5 11  1  1  0  0  0
 12 11  1  0  0  0  0
 13 14  1  0  0  0  0
 13 15  1  0  0  0  0
 14 16  1  0  0  0  0
 15 17  1  0  0  0  0
 16 18  1  0  0  0  0
 17 18  1  0  0  0  0
 13  8  1  6  0  0  0
 14 19  1  1  0  0  0
 16 20  1  1  0  0  0
 18 21  1  6  0  0  0
 17 22  1  1  0  0  0
 23 22  1  0  0  0  0
 24 25  1  0  0  0  0
 24 26  1  0  0  0  0
 25 27  1  0  0  0  0
 26 28  1  0  0  0  0
 27 29  1  0  0  0  0
 28 29  1  0  0  0  0
 24 19  1  6  0  0  0
 25 30  1  1  0  0  0
 27 31  1  1  0  0  0
 29 32  1  6  0  0  0
 28 33  1  1  0  0  0
 34 33  1  0  0  0  0
 35 36  1  0  0  0  0
 35 37  1  0  0  0  0
 36 38  1  0  0  0  0
 37 39  1  0  0  0  0
 38 40  1  0  0  0  0
 39 40  1  0  0  0  0
 35 10  1  1  0  0  0
 36 41  1  6  0  0  0
 38 42  1  1  0  0  0
 40 43  1  1  0  0  0
 39 44  1  1  0  0  0
 45 44  1  0  0  0  0
M  END
> <ID>
CHEBI:74984

> <NAME>
beta-D-Galp-(1->4)-[alpha-D-Manp-(1->2)-alpha-D-Manp-(1->2)]-alpha-D-Manp

> <DEFINITION>
A tetrasaccharide comprising three α-D-mannose residues, all linked (1→2), with a β-D-galactose residue also linked (1→4) to the reducing-end mannose residue. A Leishmania lipophosphoglycan capping tetrasaccharide.

> <STAR>
3

> <SYNONYM>
Manalpha1-2Manalpha1-2(Galbeta1-4)Manalpha; Galbeta1-4(Manalpha1-2Manalpha1-2)Manalpha; beta-D-galactosyl-(1->4)-[alpha-D-mannosyl-(1->2)-alpha-D-mannosyl-(1->2)]-alpha-D-mannose; beta-D-Gal-(1->4)-[alpha-D-Man-(1->2)-alpha-D-Man-(1->2)]-alpha-D-Man; alpha-D-Manp-(1->2)-alpha-D-Manp-(1->2)-[beta-D-Galp-(1->4)]-alpha-D-Manp; alpha-D-mannosyl-(1->2)-alpha-D-mannosyl-(1->2)-[beta-D-galactosyl-(1->4)]-alpha-D-mannose; alpha-D-Man-(1->2)-alpha-D-Man-(1->2)-[beta-D-Gal-(1->4)]-alpha-D-Man

> <IUPAC_NAME>
beta-D-galactopyranosyl-(1->4)-[alpha-D-mannopyranosyl-(1->2)-alpha-D-mannopyranosyl-(1->2)]-alpha-D-mannopyranose

> <FORMULA>
C24H42O21

> <MASS>
666.57770

> <MONOISOTOPIC_MASS>
666.22186

> <CHARGE>
0

> <SMILES>
OC[C@H]1O[C@@H](O[C@@H]2[C@@H](CO)O[C@H](O)[C@@H](O[C@H]3O[C@H](CO)[C@@H](O)[C@H](O)[C@@H]3O[C@H]3O[C@H](CO)[C@@H](O)[C@H](O)[C@@H]3O)[C@H]2O)[C@H](O)[C@@H](O)[C@H]1O

> <INCHI>
InChI=1S/C24H42O21/c25-1-5-9(29)12(32)15(35)22(40-5)43-18-8(4-28)39-21(38)19(17(18)37)44-24-20(14(34)11(31)7(3-27)42-24)45-23-16(36)13(33)10(30)6(2-26)41-23/h5-38H,1-4H2/t5-,6-,7-,8-,9+,10-,11-,12+,13+,14+,15-,16+,17+,18-,19+,20+,21+,22+,23-,24-/m1/s1

> <INCHIKEY>
SOLVDCCNJGJYPN-FXMPDBFASA-N

> <PUBMED_CITATION>
11397159; 23836132; 27091615

$$$$

Marvin  08091313242D          

 36 39  0  0  1  0            999 V2000
   44.1819  -36.9091    0.0000 N   0  0  0  0  0  0  0  0  0  0  0  0
   44.7339  -36.2960    0.0000 C   0  0  0  0  0  0  0  0  0  0  0  0
   43.3749  -36.7376    0.0000 C   0  0  0  0  0  0  0  0  0  0  0  0
   44.4790  -35.5114    0.0000 N   0  0  0  0  0  0  0  0  0  0  0  0
   43.6721  -35.3398    0.0000 C   0  0  0  0  0  0  0  0  0  0  0  0
   43.1199  -35.9530    0.0000 C   0  0  0  0  0  0  0  0  0  0  0  0
   44.4368  -37.6938    0.0000 C   0  0  2  0  0  0  0  0  0  0  0  0
   43.9519  -38.3611    0.0000 O   0  0  0  0  0  0  0  0  0  0  0  0
   45.2213  -37.9487    0.0000 C   0  0  0  0  0  0  0  0  0  0  0  0
   44.4367  -39.0286    0.0000 C   0  0  1  0  0  0  0  0  0  0  0  0
   45.2213  -38.7736    0.0000 C   0  0  1  0  0  0  0  0  0  0  0  0
   45.5408  -36.4676    0.0000 O   0  0  0  0  0  0  0  0  0  0  0  0
   45.8888  -39.2587    0.0000 O   0  0  0  0  0  0  0  0  0  0  0  0
   43.4171  -34.5552    0.0000 O   0  0  0  0  0  0  0  0  0  0  0  0
   44.1818  -39.8133    0.0000 C   0  0  0  0  0  0  0  0  0  0  0  0
   43.3215  -39.8008    0.0000 O   0  0  0  0  0  0  0  0  0  0  0  0
   42.3130  -35.7814    0.0000 C   0  0  0  0  0  0  0  0  0  0  0  0
   48.3322  -35.9476    0.0000 N   0  0  0  0  0  0  0  0  0  0  0  0
   48.8843  -35.3345    0.0000 C   0  0  0  0  0  0  0  0  0  0  0  0
   47.5252  -35.7760    0.0000 C   0  0  0  0  0  0  0  0  0  0  0  0
   48.6294  -34.5499    0.0000 N   0  0  0  0  0  0  0  0  0  0  0  0
   47.8224  -34.3784    0.0000 C   0  0  0  0  0  0  0  0  0  0  0  0
   47.2703  -34.9914    0.0000 C   0  0  0  0  0  0  0  0  0  0  0  0
   48.5871  -36.7322    0.0000 C   0  0  2  0  0  0  0  0  0  0  0  0
   48.1022  -37.3996    0.0000 O   0  0  0  0  0  0  0  0  0  0  0  0
   49.3717  -36.9872    0.0000 C   0  0  0  0  0  0  0  0  0  0  0  0
   48.5871  -38.0671    0.0000 C   0  0  1  0  0  0  0  0  0  0  0  0
   49.3717  -37.8122    0.0000 C   0  0  1  0  0  0  0  0  0  0  0  0
   49.6912  -35.5061    0.0000 O   0  0  0  0  0  0  0  0  0  0  0  0
   50.0391  -38.2972    0.0000 O   0  0  0  0  0  0  0  0  0  0  0  0
   47.5675  -33.5937    0.0000 N   0  0  0  0  0  0  0  0  0  0  0  0
   48.3321  -38.8517    0.0000 C   0  0  0  0  0  0  0  0  0  0  0  0
   47.4718  -38.8393    0.0000 O   0  0  0  0  0  0  0  0  0  0  0  0
   46.7574  -40.0768    0.0000 O   0  0  0  0  0  0  0  0  0  0  0  0
   46.7574  -39.2518    0.0000 P   0  0  0  0  0  0  0  0  0  0  0  0
   46.7574  -38.4268    0.0000 O   0  0  0  0  0  0  0  0  0  0  0  0
  7  1  1  1  0  0  0
  1  2  1  0  0  0  0
  2 12  2  0  0  0  0
  1  3  1  0  0  0  0
  2  4  1  0  0  0  0
  4  5  1  0  0  0  0
  5 14  2  0  0  0  0
  3  6  2  0  0  0  0
  6  5  1  0  0  0  0
  7  8  1  0  0  0  0
  7  9  1  0  0  0  0
  8 10  1  0  0  0  0
  9 11  1  0  0  0  0
 10 15  1  1  0  0  0
 10 11  1  0  0  0  0
 11 13  1  6  0  0  0
 15 16  1  0  0  0  0
  6 17  1  0  0  0  0
 24 18  1  1  0  0  0
 18 19  1  0  0  0  0
 19 29  2  0  0  0  0
 18 20  1  0  0  0  0
 19 21  1  0  0  0  0
 21 22  2  0  0  0  0
 22 31  1  0  0  0  0
 20 23  2  0  0  0  0
 23 22  1  0  0  0  0
 24 25  1  0  0  0  0
 24 26  1  0  0  0  0
 25 27  1  0  0  0  0
 26 28  1  0  0  0  0
 27 32  1  1  0  0  0
 27 28  1  0  0  0  0
 28 30  1  6  0  0  0
 32 33  1  0  0  0  0
 33 35  1  0  0  0  0
 35 34  2  0  0  0  0
 35 36  1  0  0  0  0
 35 13  1  0  0  0  0
M  END
> <ID>
CHEBI:75157

> <NAME>
5'-d[TC]-3'

> <DEFINITION>
A single-strand DNA oligonucleotide consisting of a thymidine residue phospho-linked 3'→5' to a deoxycytidine residue (PDB entry: 2OK0).

> <STAR>
3

> <SYNONYM>
TpdC; Thymidylyl-3',5',2'-deoxycytidine; Thymidylyl-(3'-5')-deoxycytidine; dTpdC; [3']thymidylic acid-(2'-deoxycytidin-5'-yl ester); 5'dTdC3'; 5'-d(*tp*c)-3'; 2'-deoxycytidylyl-(5'->3')-thymidine; 2'-Deoxycytidylyl-(3',5')-thymidylic(5')acid

> <FORMULA>
C19H26N5O11P

> <MASS>
531.41040

> <MONOISOTOPIC_MASS>
531.13664

> <CHARGE>
0

> <SMILES>
Cc1cn([C@H]2C[C@H](OP(O)(=O)OC[C@H]3O[C@H](C[C@@H]3O)n3ccc(N)nc3=O)[C@@H](CO)O2)c(=O)[nH]c1=O

> <INCHI>
InChI=1S/C19H26N5O11P/c1-9-6-24(19(29)22-17(9)27)16-5-11(12(7-25)33-16)35-36(30,31)32-8-13-10(26)4-15(34-13)23-3-2-14(20)21-18(23)28/h2-3,6,10-13,15-16,25-26H,4-5,7-8H2,1H3,(H,30,31)(H2,20,21,28)(H,22,27,29)/t10-,11-,12+,13+,15+,16+/m0/s1

> <INCHIKEY>
JOORWUINAFDIEP-SWTKMSQOSA-N

> <CAS_REGISTRY_NUMBER>
5178-19-8

> <REAXYS_REGISTRY_NUMBER>
72797

> <CHEMIDPLUS>
5178-19-8

> <PUBMED_CITATION>
17512945

$$$$

Ketcher 12091911512D 1   1.00000     0.00000     0

 38 42  0     1  0            999 V2000
    8.5576  -61.1899    0.0000 O   0  0  0  0  0  0  0  0  0  0  0  0
    9.5875  -58.0195    0.0000 N   0  0  0  0  0  0  0  0  0  0  0  0
    9.0308  -58.7858    0.0000 C   0  0  0  0  0  0  0  0  0  0  0  0
    8.0839  -58.7858    0.0000 O   0  0  0  0  0  0  0  0  0  0  0  0
    7.7912  -59.6864    0.0000 C   0  0  0  0  0  0  0  0  0  0  0  0
    8.5575  -60.2429    0.0000 C   0  0  0  0  0  0  0  0  0  0  0  0
    9.3236  -59.6862    0.0000 C   0  0  0  0  0  0  0  0  0  0  0  0
    6.8907  -59.9791    0.0000 C   0  0  0  0  0  0  0  0  0  0  0  0
   10.6445  -61.9953    0.0000 O   0  0  0  0  0  0  0  0  0  0  0  0
    8.3842  -62.5483    0.0000 O   0  0  0  0  0  0  0  0  0  0  0  0
    9.1501  -61.9916    0.0000 P   0  0  0  0  0  0  0  0  0  0  0  0
    9.5449  -61.0017    0.0000 O   0  0  0  0  0  0  0  0  0  0  0  0
   10.5341  -56.3793    0.0000 C   0  0  0  0  0  0  0  0  0  0  0  0
    9.5873  -56.3793    0.0000 N   0  0  0  0  0  0  0  0  0  0  0  0
   11.0078  -57.1994    0.0000 C   0  0  0  0  0  0  0  0  0  0  0  0
    9.1139  -57.1995    0.0000 C   0  0  0  0  0  0  0  0  0  0  0  0
   10.5343  -58.0193    0.0000 C   0  0  0  0  0  0  0  0  0  0  0  0
    8.1669  -57.1996    0.0000 O   0  0  0  0  0  0  0  0  0  0  0  0
   11.0075  -55.5593    0.0000 O   0  0  0  0  0  0  0  0  0  0  0  0
   11.9282  -57.2422    0.0000 C   0  0  0  0  0  0  0  0  0  0  0  0
   11.8921  -56.4201    0.0000 O   0  0  0  0  0  0  0  0  0  0  0  0
   13.2585  -64.0223    0.0000 O   0  0  0  0  0  0  0  0  0  0  0  0
   13.3897  -60.4194    0.0000 N   0  0  0  0  0  0  0  0  0  0  0  0
   13.3412  -61.5678    0.0000 C   0  0  0  0  0  0  0  0  0  0  0  0
   12.3945  -61.5678    0.0000 O   0  0  0  0  0  0  0  0  0  0  0  0
   12.1018  -62.4685    0.0000 C   0  0  0  0  0  0  0  0  0  0  0  0
   12.8681  -63.0249    0.0000 C   0  0  0  0  0  0  0  0  0  0  0  0
   13.6342  -62.4684    0.0000 C   0  0  0  0  0  0  0  0  0  0  0  0
   11.2013  -62.7612    0.0000 C   0  0  0  0  0  0  0  0  0  0  0  0
   12.4280  -58.7881    0.0000 C   0  0  0  0  0  0  0  0  0  0  0  0
   11.9620  -59.6125    0.0000 C   0  0  0  0  0  0  0  0  0  0  0  0
   13.3747  -58.7794    0.0000 N   0  0  0  0  0  0  0  0  0  0  0  0
   12.4430  -60.4281    0.0000 C   0  0  0  0  0  0  0  0  0  0  0  0
   13.8559  -59.5952    0.0000 C   0  0  0  0  0  0  0  0  0  0  0  0
   14.8027  -59.5864    0.0000 O   0  0  0  0  0  0  0  0  0  0  0  0
   11.0150  -59.6213    0.0000 C   0  0  0  0  0  0  0  0  0  0  0  0
   10.3672  -58.8219    0.0000 H   0  0  0  0  0  0  0  0  0  0  0  0
    6.1347  -59.3922    0.0000 O   0  0  0  0  0  0  0  0  0  0  0  0
  3  2  1  1     0  0
  3  4  1  0     0  0
  3  7  1  0     0  0
  4  5  1  0     0  0
  5  8  1  1     0  0
  5  6  1  0     0  0
  6  7  1  0     0  0
  6  1  1  6     0  0
  9 11  1  0     0  0
 11 10  2  0     0  0
 11 12  1  0     0  0
 11  1  1  0     0  0
 14 13  1  0     0  0
 15 13  1  0     0  0
 16 14  1  0     0  0
 17 15  1  0     0  0
  2 16  1  0     0  0
  2 17  1  0     0  0
 16 18  2  0     0  0
 13 19  2  0     0  0
 15 20  1  1     0  0
 15 21  1  6     0  0
 24 23  1  1     0  0
 24 25  1  0     0  0
 24 28  1  0     0  0
 25 26  1  0     0  0
 26 29  1  1     0  0
 26 27  1  0     0  0
 27 28  1  0     0  0
 29  9  1  0     0  0
 27 22  1  6     0  0
 31 30  1  0     0  0
 32 30  2  0     0  0
 33 31  2  0     0  0
 34 32  1  0     0  0
 23 33  1  0     0  0
 23 34  1  0     0  0
 34 35  2  0     0  0
 31 36  1  0     0  0
 17 30  1  0     0  0
 17 37  1  1     0  0
  8 38  1  0     0  0
M  END
> <ID>
CHEBI:75165

> <NAME>
dT(6-4)T

> <DEFINITION>
A single-stranded DNA oligonucleotide consisting of two thymidine molecules linked (3'→5') and also with a C6-C4 bond. It results from irradiation at 254 nm of normal dTpT (PDB entry: 1EHL).

> <STAR>
3

> <SYNONYM>
D(5HT)(6-4)T; 5'-(d(5ht)p*(6-4)t)-3'

> <FORMULA>
C20H27N4O12P

> <MASS>
546.426

> <MONOISOTOPIC_MASS>
546.13631

> <CHARGE>
0

> <SMILES>
O1[C@@H]2[C@H](O[C@@H](N3C(NC([C@]([C@@]3(C=4C(=CN([C@@H]5O[C@H](COP1(=O)O)[C@H](C5)O)C(N4)=O)C)[H])(C)O)=O)=O)C2)CO

> <INCHI>
InChI=1S/C20H27N4O12P/c1-8-5-23-13-3-9(26)12(35-13)7-33-37(31,32)36-10-4-14(34-11(10)6-25)24-16(15(8)21-18(23)28)20(2,30)17(27)22-19(24)29/h5,9-14,16,25-26,30H,3-4,6-7H2,1-2H3,(H,31,32)(H,22,27,29)/t9-,10-,11+,12+,13+,14+,16-,20+/m0/s1

> <INCHIKEY>
PRFQJBLUTUYASX-IWBSTULPSA-N

> <PUBMED_CITATION>
10835279

$$$$

Marvin  08231316152D          

 23 23  0  0  1  0            999 V2000
    6.4003   -7.0465    0.0000 C   0  0  2  0  0  0  0  0  0  0  0  0
    6.4003   -7.8831    0.0000 C   0  0  1  0  0  0  0  0  0  0  0  0
    7.1113   -8.3014    0.0000 C   0  0  1  0  0  0  0  0  0  0  0  0
    7.8224   -7.8831    0.0000 C   0  0  2  0  0  0  0  0  0  0  0  0
    7.8224   -7.0465    0.0000 C   0  0  1  0  0  0  0  0  0  0  0  0
    7.1113   -6.6283    0.0000 O   0  0  0  0  0  0  0  0  0  0  0  0
    5.6474   -6.6283    0.0000 C   0  0  0  0  0  0  0  0  0  0  0  0
    8.5753   -8.3014    0.0000 O   0  0  0  0  0  0  0  0  0  0  0  0
    5.6474   -8.3014    0.0000 O   0  0  0  0  0  0  0  0  0  0  0  0
    7.1113   -9.1379    0.0000 O   0  0  0  0  0  0  0  0  0  0  0  0
    8.5753   -6.6283    0.0000 O   0  0  0  0  0  0  0  0  0  0  0  0
    8.5335   -5.7917    0.0000 C   0  0  1  0  0  0  0  0  0  0  0  0
    9.2864   -5.3734    0.0000 C   0  0  1  0  0  0  0  0  0  0  0  0
    9.9975   -5.7917    0.0000 C   0  0  2  0  0  0  0  0  0  0  0  0
   10.7085   -5.3734    0.0000 C   0  0  0  0  0  0  0  0  0  0  0  0
   11.4196   -5.7917    0.0000 O   0  0  0  0  0  0  0  0  0  0  0  0
    7.8224   -5.3734    0.0000 C   0  0  1  0  0  0  0  0  0  0  0  0
    7.1113   -5.7917    0.0000 C   0  0  0  0  0  0  0  0  0  0  0  0
    6.4003   -5.3734    0.0000 O   0  0  0  0  0  0  0  0  0  0  0  0
    9.2864   -4.5369    0.0000 O   0  0  0  0  0  0  0  0  0  0  0  0
    9.9975   -6.6283    0.0000 O   0  0  0  0  0  0  0  0  0  0  0  0
    7.8224   -4.5369    0.0000 O   0  0  0  0  0  0  0  0  0  0  0  0
    4.9314   -7.0575    0.0000 O   0  0  0  0  0  0  0  0  0  0  0  0
  4  5  1  0  0  0  0
 12 11  1  6  0  0  0
  5  6  1  0  0  0  0
 12 13  1  0  0  0  0
  6  1  1  0  0  0  0
 13 14  1  0  0  0  0
 14 15  1  0  0  0  0
  1  7  1  1  0  0  0
 15 16  1  0  0  0  0
 12 17  1  0  0  0  0
  4  8  1  6  0  0  0
 17 18  1  0  0  0  0
  1  2  1  0  0  0  0
 18 19  1  0  0  0  0
  2  9  1  1  0  0  0
 13 20  1  6  0  0  0
  2  3  1  0  0  0  0
 14 21  1  6  0  0  0
  3 10  1  1  0  0  0
 17 22  1  1  0  0  0
  3  4  1  0  0  0  0
  5 11  1  1  0  0  0
  7 23  1  0  0  0  0
M  END
> <ID>
CHEBI:75323

> <NAME>
lactitol

> <DEFINITION>
A disaccharide consisting of β-D-galactopyranose and D-glucitol joined by a 1→4 glycosidic bond. It is used as a laxative, as an excipient, and as replacement bulk sweetener in some low-calorie foods.

> <STAR>
3

> <SYNONYM>
D-lactitol

> <IUPAC_NAME>
4-O-beta-D-galactopyranosyl-D-glucitol

> <INN>
lactitolum; lactitol; lactitol; lactitol

> <BRAND_NAME>
Importal

> <FORMULA>
C12H24O11

> <MASS>
344.31240

> <MONOISOTOPIC_MASS>
344.13186

> <CHARGE>
0

> <SMILES>
OC[C@H](O)[C@@H](O)[C@H](O[C@@H]1O[C@H](CO)[C@H](O)[C@H](O)[C@H]1O)[C@H](O)CO

> <INCHI>
InChI=1S/C12H24O11/c13-1-4(16)7(18)11(5(17)2-14)23-12-10(21)9(20)8(19)6(3-15)22-12/h4-21H,1-3H2/t4-,5+,6+,7+,8-,9-,10+,11+,12-/m0/s1

> <INCHIKEY>
VQHSOMBJVWLPSR-JVCRWLNRSA-N

> <CAS_REGISTRY_NUMBER>
585-86-4

> <REAXYS_REGISTRY_NUMBER>
89982

> <CHEMIDPLUS>
585-86-4

> <HMDB_ACCESSION>
HMDB0040937

> <KEGG_DRUG_ACCESSION>
D08266

> <METACYC_ACCESSION>
CPD0-2460

> <WIKIPEDIA_ACCESSION>
Lactitol

> <PUBMED_CITATION>
10654158; 1596932; 21853265; 23165913; 2885579

$$$$

Marvin  09241314512D          

 37 40  0  0  1  0            999 V2000
    7.7029   -8.8284    0.0000 O   0  0  0  0  0  0  0  0  0  0  0  0
    5.9960   -6.4789    0.0000 N   0  0  0  0  0  0  0  0  0  0  0  0
    6.2511   -7.2636    0.0000 C   0  0  2  0  0  0  0  0  0  0  0  0
    5.7660   -7.9309    0.0000 O   0  0  0  0  0  0  0  0  0  0  0  0
    6.2509   -8.5985    0.0000 C   0  0  1  0  0  0  0  0  0  0  0  0
    7.0355   -8.3435    0.0000 C   0  0  2  0  0  0  0  0  0  0  0  0
    7.0355   -7.5185    0.0000 C   0  0  0  0  0  0  0  0  0  0  0  0
    5.1709   -9.3831    0.0000 O   0  0  0  0  0  0  0  0  0  0  0  0
    5.9959   -9.3831    0.0000 C   0  0  0  0  0  0  0  0  0  0  0  0
    5.9960   -4.8288    0.0000 C   0  0  0  0  0  0  0  0  0  0  0  0
    5.2816   -5.2412    0.0000 N   0  0  0  0  0  0  0  0  0  0  0  0
    6.7106   -5.2414    0.0000 C   0  0  0  0  0  0  0  0  0  0  0  0
    5.2816   -6.0663    0.0000 C   0  0  0  0  0  0  0  0  0  0  0  0
    6.7104   -6.0664    0.0000 C   0  0  0  0  0  0  0  0  0  0  0  0
    4.5671   -6.4787    0.0000 O   0  0  0  0  0  0  0  0  0  0  0  0
    5.9962   -4.0038    0.0000 O   0  0  0  0  0  0  0  0  0  0  0  0
    7.4252   -4.8290    0.0000 C   0  0  0  0  0  0  0  0  0  0  0  0
   11.8181   -7.8544    0.0000 O   0  0  0  0  0  0  0  0  0  0  0  0
   10.1111   -5.5047    0.0000 N   0  0  0  0  0  0  0  0  0  0  0  0
   10.3661   -6.2895    0.0000 C   0  0  2  0  0  0  0  0  0  0  0  0
    9.8812   -6.9568    0.0000 O   0  0  0  0  0  0  0  0  0  0  0  0
   10.3661   -7.6244    0.0000 C   0  0  1  0  0  0  0  0  0  0  0  0
   11.1506   -7.3694    0.0000 C   0  0  2  0  0  0  0  0  0  0  0  0
   11.1507   -6.5444    0.0000 C   0  0  0  0  0  0  0  0  0  0  0  0
    9.2861   -8.4090    0.0000 O   0  0  0  0  0  0  0  0  0  0  0  0
   10.1111   -8.4090    0.0000 C   0  0  0  0  0  0  0  0  0  0  0  0
    8.5715   -9.6465    0.0000 O   0  0  0  0  0  0  0  0  0  0  0  0
    8.5715   -8.8215    0.0000 P   0  0  0  0  0  0  0  0  0  0  0  0
    8.5715   -7.9965    0.0000 O   0  0  0  0  0  0  0  0  0  0  0  0
   10.1112   -3.8547    0.0000 C   0  0  0  0  0  0  0  0  0  0  0  0
    9.3967   -4.2671    0.0000 N   0  0  0  0  0  0  0  0  0  0  0  0
   10.8256   -4.2673    0.0000 C   0  0  0  0  0  0  0  0  0  0  0  0
    9.3967   -5.0922    0.0000 C   0  0  0  0  0  0  0  0  0  0  0  0
   10.8256   -5.0922    0.0000 C   0  0  0  0  0  0  0  0  0  0  0  0
    8.6823   -5.5047    0.0000 O   0  0  0  0  0  0  0  0  0  0  0  0
   10.1112   -3.0297    0.0000 O   0  0  0  0  0  0  0  0  0  0  0  0
   11.5402   -3.8549    0.0000 C   0  0  0  0  0  0  0  0  0  0  0  0
  3  2  1  1  0  0  0
  3  4  1  0  0  0  0
  3  7  1  0  0  0  0
  4  5  1  0  0  0  0
  5  9  1  1  0  0  0
  5  6  1  0  0  0  0
  6  7  1  0  0  0  0
  9  8  1  0  0  0  0
  6  1  1  6  0  0  0
 11 10  1  0  0  0  0
 12 10  1  0  0  0  0
 13 11  1  0  0  0  0
 14 12  2  0  0  0  0
  2 13  1  0  0  0  0
  2 14  1  0  0  0  0
 13 15  2  0  0  0  0
 10 16  2  0  0  0  0
 12 17  1  0  0  0  0
 20 19  1  1  0  0  0
 20 21  1  0  0  0  0
 20 24  1  0  0  0  0
 21 22  1  0  0  0  0
 22 26  1  1  0  0  0
 22 23  1  0  0  0  0
 23 24  1  0  0  0  0
 26 25  1  0  0  0  0
 23 18  1  6  0  0  0
 25 28  1  0  0  0  0
 28 27  2  0  0  0  0
 28 29  1  0  0  0  0
 28  1  1  0  0  0  0
 31 30  1  0  0  0  0
 32 30  1  0  0  0  0
 33 31  1  0  0  0  0
 34 32  2  0  0  0  0
 19 33  1  0  0  0  0
 19 34  1  0  0  0  0
 33 35  2  0  0  0  0
 30 36  2  0  0  0  0
 32 37  1  0  0  0  0
M  END
> <ID>
CHEBI:75710

> <NAME>
dT2

> <DEFINITION>
An oligonucleotide comprised of two thymidine residues connected via a 3'→5' phosphodiester linkage.

> <STAR>
3

> <SYNONYM>
Tp5meU; thymidylyl-(5'->3')-thymidine; thymidylyl-(3'->5')-thymidine; thymidylyl-(3',5')-thymidine phosphate; thymidylyl(3'-5')thymidine; thymidylyl (3',5')thymidine; Thymidylyl (3',5')-ribothymidine; T2; dTpdT; dithymidylyl-3',5'-phosphate; dithymidine phosphate; dithymidine 3',5'-phosphate; d(Tpt)

> <FORMULA>
C20H27N4O12P

> <MASS>
546.42170

> <MONOISOTOPIC_MASS>
546.13631

> <CHARGE>
0

> <SMILES>
Cc1cn([C@H]2C[C@H](O)[C@@H](COP(O)(=O)O[C@H]3C[C@@H](O[C@@H]3CO)n3cc(C)c(=O)[nH]c3=O)O2)c(=O)[nH]c1=O

> <INCHI>
InChI=1S/C20H27N4O12P/c1-9-5-23(19(29)21-17(9)27)15-3-11(26)14(35-15)8-33-37(31,32)36-12-4-16(34-13(12)7-25)24-6-10(2)18(28)22-20(24)30/h5-6,11-16,25-26H,3-4,7-8H2,1-2H3,(H,31,32)(H,21,27,29)(H,22,28,30)/t11-,12-,13+,14+,15+,16+/m0/s1

> <INCHIKEY>
FCXGCSBZKOHCLB-KPRKPIBOSA-N

> <CAS_REGISTRY_NUMBER>
1969-54-6

> <REAXYS_REGISTRY_NUMBER>
73429

> <CHEMIDPLUS>
1969-54-6

> <PUBMED_CITATION>
22641198; 7110140; 7525097

$$$$

Marvin  10031311082D          

 41 46  0  0  1  0            999 V2000
    7.6412  -26.0018    0.0000 C   0  0  0  0  0  0  0  0  0  0  0  0
    8.4257  -26.2574    0.0000 C   0  0  1  0  0  0  0  0  0  0  0  0
    9.0935  -25.7731    0.0000 O   0  0  0  0  0  0  0  0  0  0  0  0
    8.6799  -27.0423    0.0000 C   0  0  2  0  0  0  0  0  0  0  0  0
    9.7604  -26.2586    0.0000 C   0  0  2  0  0  0  0  0  0  0  0  0
    9.5049  -27.0430    0.0000 C   0  0  2  0  0  0  0  0  0  0  0  0
   10.5452  -26.0042    0.0000 N   0  0  0  0  0  0  0  0  0  0  0  0
    9.9894  -27.7109    0.0000 O   0  0  0  0  0  0  0  0  0  0  0  0
   12.8626  -24.5050    0.0000 N   0  0  0  0  0  0  0  0  0  0  0  0
   12.0376  -24.5052    0.0000 C   0  0  0  0  0  0  0  0  0  0  0  0
   11.6249  -23.7906    0.0000 N   0  0  0  0  0  0  0  0  0  0  0  0
   10.7999  -23.7906    0.0000 C   0  0  0  0  0  0  0  0  0  0  0  0
   10.3876  -24.5053    0.0000 N   0  0  0  0  0  0  0  0  0  0  0  0
   10.8002  -25.2197    0.0000 C   0  0  0  0  0  0  0  0  0  0  0  0
   11.6252  -25.2196    0.0000 C   0  0  0  0  0  0  0  0  0  0  0  0
   11.8801  -26.0042    0.0000 N   0  0  0  0  0  0  0  0  0  0  0  0
   11.2127  -26.4891    0.0000 C   0  0  0  0  0  0  0  0  0  0  0  0
    8.1944  -27.7093    0.0000 O   0  0  0  0  0  0  0  0  0  0  0  0
    7.0277  -26.5533    0.0000 O   0  0  0  0  0  0  0  0  0  0  0  0
   12.4548  -27.1205    0.0000 C   0  0  0  0  0  0  0  0  0  0  0  0
   13.2393  -27.3761    0.0000 C   0  0  1  0  0  0  0  0  0  0  0  0
   13.9071  -26.8918    0.0000 O   0  0  0  0  0  0  0  0  0  0  0  0
   13.4935  -28.1610    0.0000 C   0  0  2  0  0  0  0  0  0  0  0  0
   14.5740  -27.3773    0.0000 C   0  0  2  0  0  0  0  0  0  0  0  0
   14.3185  -28.1617    0.0000 C   0  0  2  0  0  0  0  0  0  0  0  0
   15.3588  -27.1230    0.0000 N   0  0  0  0  0  0  0  0  0  0  0  0
   14.8030  -28.8296    0.0000 O   0  0  0  0  0  0  0  0  0  0  0  0
   17.6762  -25.6237    0.0000 N   0  0  0  0  0  0  0  0  0  0  0  0
   16.8512  -25.6239    0.0000 C   0  0  0  0  0  0  0  0  0  0  0  0
   16.4385  -24.9094    0.0000 N   0  0  0  0  0  0  0  0  0  0  0  0
   15.6135  -24.9094    0.0000 C   0  0  0  0  0  0  0  0  0  0  0  0
   15.2012  -25.6240    0.0000 N   0  0  0  0  0  0  0  0  0  0  0  0
   15.6138  -26.3384    0.0000 C   0  0  0  0  0  0  0  0  0  0  0  0
   16.4388  -26.3383    0.0000 C   0  0  0  0  0  0  0  0  0  0  0  0
   16.6937  -27.1229    0.0000 N   0  0  0  0  0  0  0  0  0  0  0  0
   16.0263  -27.6078    0.0000 C   0  0  0  0  0  0  0  0  0  0  0  0
   13.0080  -28.8280    0.0000 O   0  0  0  0  0  0  0  0  0  0  0  0
   11.8412  -27.6720    0.0000 O   0  0  0  0  0  0  0  0  0  0  0  0
   10.9039  -27.9307    0.0000 P   0  0  0  0  0  0  0  0  0  0  0  0
   10.9039  -28.7259    0.0000 O   0  0  0  0  0  0  0  0  0  0  0  0
   11.3611  -27.0560    0.0000 O   0  0  0  0  0  0  0  0  0  0  0  0
  3  2  1  0  0  0  0
  4  2  1  0  0  0  0
  5  3  1  0  0  0  0
  6  4  1  0  0  0  0
  6  5  1  0  0  0  0
  2  1  1  1  0  0  0
  5  7  1  1  0  0  0
  6  8  1  6  0  0  0
 14  7  1  0  0  0  0
 17  7  1  0  0  0  0
  9 10  1  0  0  0  0
 10 11  2  0  0  0  0
 10 15  1  0  0  0  0
 11 12  1  0  0  0  0
 12 13  2  0  0  0  0
 13 14  1  0  0  0  0
 14 15  2  0  0  0  0
 15 16  1  0  0  0  0
 16 17  2  0  0  0  0
  4 18  1  6  0  0  0
  1 19  1  0  0  0  0
 22 21  1  0  0  0  0
 23 21  1  0  0  0  0
 24 22  1  0  0  0  0
 25 23  1  0  0  0  0
 25 24  1  0  0  0  0
 21 20  1  1  0  0  0
 24 26  1  1  0  0  0
 25 27  1  6  0  0  0
 33 26  1  0  0  0  0
 36 26  1  0  0  0  0
 28 29  1  0  0  0  0
 29 30  2  0  0  0  0
 29 34  1  0  0  0  0
 30 31  1  0  0  0  0
 31 32  2  0  0  0  0
 32 33  1  0  0  0  0
 33 34  2  0  0  0  0
 34 35  1  0  0  0  0
 35 36  2  0  0  0  0
 23 37  1  6  0  0  0
 20 38  1  0  0  0  0
 38 39  1  0  0  0  0
  8 39  1  0  0  0  0
 39 40  2  0  0  0  0
 39 41  1  0  0  0  0
M  END
> <ID>
CHEBI:75801

> <NAME>
A2'p5'A

> <DEFINITION>
A (2'→5')-dinucleotide in which the two nucleoside components connected by the (2'→5')-phosphodiester linkage are adenosine.

> <STAR>
3

> <SYNONYM>
phosphoric acid adenosin-2'-yl ester adenosin-5'-yl ester; Ap(2'-5')A; adenylyl-2',5'-adenosine; adenylyl-(2'->5')-adenosine; Adenylyl-(2'.5')-adenosine; Adenylyl-(2'-5')-adenosine; adenylyl(2'-5')phosphoadenine; adenosin-2'-yl adenosin-5'-yl phosphate

> <IUPAC_NAME>
adenosin-2'-yl adenosin-5'-yl hydrogen phosphate

> <FORMULA>
C20H25N10O10P

> <MASS>
596.44730

> <MONOISOTOPIC_MASS>
596.14927

> <CHARGE>
0

> <SMILES>
Nc1ncnc2n(cnc12)[C@@H]1O[C@H](COP(O)(=O)O[C@@H]2[C@H](O)[C@@H](CO)O[C@H]2n2cnc3c(N)ncnc23)[C@@H](O)[C@H]1O

> <INCHI>
InChI=1S/C20H25N10O10P/c21-15-9-17(25-3-23-15)29(5-27-9)19-13(34)11(32)8(39-19)2-37-41(35,36)40-14-12(33)7(1-31)38-20(14)30-6-28-10-16(22)24-4-26-18(10)30/h3-8,11-14,19-20,31-34H,1-2H2,(H,35,36)(H2,21,23,25)(H2,22,24,26)/t7-,8-,11-,12-,13-,14-,19-,20-/m1/s1

> <INCHIKEY>
CJUIKAWANGRMQE-XPWFQUROSA-N

> <CAS_REGISTRY_NUMBER>
2273-76-9

> <REAXYS_REGISTRY_NUMBER>
76321

> <CHEMIDPLUS>
2273-76-9

> <PUBMED_CITATION>
20390103; 2178211; 6181514; 6305230; 8466676

$$$$

Marvin  10031315452D          

 36 41  0  0  1  0            999 V2000
    9.3519  -13.3575    0.0000 O   0  0  0  0  0  0  0  0  0  0  0  0
   10.0197  -12.8732    0.0000 C   0  0  2  0  0  0  0  0  0  0  0  0
    9.6061  -14.1424    0.0000 C   0  0  1  0  0  0  0  0  0  0  0  0
   10.6868  -13.3587    0.0000 C   0  0  0  0  0  0  0  0  0  0  0  0
   10.4313  -14.1431    0.0000 C   0  0  2  0  0  0  0  0  0  0  0  0
   10.9156  -14.8110    0.0000 O   0  0  0  0  0  0  0  0  0  0  0  0
    9.1206  -14.8094    0.0000 C   0  0  0  0  0  0  0  0  0  0  0  0
    9.4555  -15.5634    0.0000 O   0  0  0  0  0  0  0  0  0  0  0  0
   10.0205  -12.0482    0.0000 N   0  0  0  0  0  0  0  0  0  0  0  0
    9.2357  -10.9683    0.0000 C   0  0  0  0  0  0  0  0  0  0  0  0
   10.0204  -10.7133    0.0000 N   0  0  0  0  0  0  0  0  0  0  0  0
    9.2357  -11.7933    0.0000 C   0  0  0  0  0  0  0  0  0  0  0  0
   10.5053  -11.3808    0.0000 C   0  0  0  0  0  0  0  0  0  0  0  0
    8.5213  -10.5558    0.0000 C   0  0  0  0  0  0  0  0  0  0  0  0
    7.8068  -10.9683    0.0000 N   0  0  0  0  0  0  0  0  0  0  0  0
    8.5213  -12.2058    0.0000 N   0  0  0  0  0  0  0  0  0  0  0  0
    7.8069  -11.7933    0.0000 C   0  0  0  0  0  0  0  0  0  0  0  0
    8.5213   -9.7307    0.0000 O   0  0  0  0  0  0  0  0  0  0  0  0
    7.0924  -12.2058    0.0000 N   0  0  0  0  0  0  0  0  0  0  0  0
   11.3303  -11.3807    0.0000 N   0  0  0  0  0  0  0  0  0  0  0  0
   12.9804  -12.8096    0.0000 C   0  0  0  0  0  0  0  0  0  0  0  0
   12.5679  -13.5241    0.0000 C   0  0  0  0  0  0  0  0  0  0  0  0
   12.5678  -12.0952    0.0000 C   0  0  0  0  0  0  0  0  0  0  0  0
   11.7429  -13.5241    0.0000 C   0  0  0  0  0  0  0  0  0  0  0  0
   11.7428  -12.0952    0.0000 C   0  0  0  0  0  0  0  0  0  0  0  0
   11.3303  -12.8097    0.0000 C   0  0  0  0  0  0  0  0  0  0  0  0
   12.8228  -14.3088    0.0000 C   0  0  0  0  0  0  0  0  0  0  0  0
   12.1554  -14.7937    0.0000 C   0  0  0  0  0  0  0  0  0  0  0  0
   11.4879  -14.3088    0.0000 C   0  0  0  0  0  0  0  0  0  0  0  0
   13.5765  -14.6444    0.0000 C   0  0  0  0  0  0  0  0  0  0  0  0
   13.6627  -15.4648    0.0000 C   0  0  0  0  0  0  0  0  0  0  0  0
   12.2416  -15.6141    0.0000 C   0  0  0  0  0  0  0  0  0  0  0  0
   12.9952  -15.9497    0.0000 C   0  0  0  0  0  0  0  0  0  0  0  0
   11.7428  -10.6662    0.0000 C   0  0  0  0  0  0  0  0  0  0  0  0
   11.3303   -9.9518    0.0000 O   0  0  0  0  0  0  0  0  0  0  0  0
   12.5678  -10.6662    0.0000 C   0  0  0  0  0  0  0  0  0  0  0  0
  2  1  1  0  0  0  0
  3  1  1  0  0  0  0
  4  2  1  0  0  0  0
  5  3  1  0  0  0  0
  5  4  1  0  0  0  0
  5  6  1  6  0  0  0
  3  7  1  1  0  0  0
  7  8  1  0  0  0  0
  2  9  1  1  0  0  0
 11 10  1  0  0  0  0
 13 11  2  0  0  0  0
  9 12  1  0  0  0  0
  9 13  1  0  0  0  0
 14 10  1  0  0  0  0
 12 10  2  0  0  0  0
 15 14  1  0  0  0  0
 16 12  1  0  0  0  0
 17 15  1  0  0  0  0
 17 16  2  0  0  0  0
 14 18  2  0  0  0  0
 17 19  1  0  0  0  0
 13 20  1  0  0  0  0
 22 21  1  0  0  0  0
 23 21  2  0  0  0  0
 24 22  2  0  0  0  0
 25 23  1  0  0  0  0
 26 24  1  0  0  0  0
 26 25  2  0  0  0  0
 25 20  1  0  0  0  0
 27 22  1  0  0  0  0
 29 24  1  0  0  0  0
 29 28  1  0  0  0  0
 30 27  1  0  0  0  0
 28 27  2  0  0  0  0
 31 30  2  0  0  0  0
 32 28  1  0  0  0  0
 33 31  1  0  0  0  0
 33 32  2  0  0  0  0
 35 34  2  0  0  0  0
 36 34  1  0  0  0  0
 20 34  1  0  0  0  0
M  END
> <ID>
CHEBI:75810

> <NAME>
N-(deoxyguanosin-8-yl)-2-acetylaminofluorene

> <DEFINITION>
Guanosine substituted at the purine 8-position by an acetyl(9H-fluoren-2-yl)amino group.

> <STAR>
3

> <SYNONYM>
N-(Deoxyguanosin-8-yl)acetylaminofluorene; N-(Deoxyguanosin-8-yl)-N-acetyl-2-aminofluorene; dG-C8-AAF; dG-8-Aaf; Acetylaminofluorene-dG

> <IUPAC_NAME>
8-[acetyl(9H-fluoren-2-yl)amino]-2'-deoxyguanosine

> <FORMULA>
C25H24N6O5

> <MASS>
488.49530

> <MONOISOTOPIC_MASS>
488.18082

> <CHARGE>
0

> <SMILES>
CC(=O)N(c1nc2c(nc(N)[nH]c2=O)n1[C@H]1C[C@H](O)[C@@H](CO)O1)c1ccc-2c(Cc3ccccc-23)c1

> <INCHI>
InChI=1S/C25H24N6O5/c1-12(33)30(15-6-7-17-14(9-15)8-13-4-2-3-5-16(13)17)25-27-21-22(28-24(26)29-23(21)35)31(25)20-10-18(34)19(11-32)36-20/h2-7,9,18-20,32,34H,8,10-11H2,1H3,(H3,26,28,29,35)/t18-,19+,20+/m0/s1

> <INCHIKEY>
QHNMSPBQWLPAMP-XUVXKRRUSA-N

> <CAS_REGISTRY_NUMBER>
37819-60-6

> <REAXYS_REGISTRY_NUMBER>
3640922

> <CHEMIDPLUS>
37819-60-6

> <PUBMED_CITATION>
12888115; 15380103; 19354292; 21064171; 22904073

$$$$

Mrv0541 10171308532D          

 11 11  0  0  0  0            999 V2000
    9.8790   -6.2670    0.0000 C   0  0  0  0  0  0  0  0  0  0  0  0
    9.8790   -7.0920    0.0000 C   0  0  0  0  0  0  0  0  0  0  0  0
    9.1644   -5.8545    0.0000 C   0  0  0  0  0  0  0  0  0  0  0  0
    9.1644   -7.5045    0.0000 N   0  0  0  0  0  0  0  0  0  0  0  0
    8.4500   -6.2670    0.0000 C   0  0  0  0  0  0  0  0  0  0  0  0
    8.4500   -7.0920    0.0000 C   0  0  0  0  0  0  0  0  0  0  0  0
    9.1644   -5.0295    0.0000 C   0  0  0  0  0  0  0  0  0  0  0  0
   10.5934   -5.8545    0.0000 C   0  0  0  0  0  0  0  0  0  0  0  0
    7.7355   -5.8545    0.0000 C   0  0  0  0  0  0  0  0  0  0  0  0
   11.3079   -6.2670    0.0000 O   0  0  0  0  0  0  0  0  0  0  0  0
    7.0210   -6.2670    0.0000 O   0  0  0  0  0  0  0  0  0  0  0  0
  2  1  2  0  0  0  0
  3  1  1  0  0  0  0
  4  2  1  0  0  0  0
  5  3  1  0  0  0  0
  6  4  1  0  0  0  0
  6  5  2  0  0  0  0
  3  7  1  0  0  0  0
  1  8  1  0  0  0  0
  5  9  1  0  0  0  0
  8 10  2  0  0  0  0
  9 11  2  0  0  0  0
M  END
> <ID>
CHEBI:75949

> <NAME>
4-methyl-1,4-dihydropyridine-3,5-dicarbaldehyde

> <DEFINITION>
A dialdehyde in which the two carbaldehyde functions are at positions 3 and 5 of 4-methyl-1,4-dihydropyridine. Although the compound is an entity in its own right, the nitrogen of the dihydropyridine ring may also arise from the ε-amino group of a lysine residue within a protein [MDHDC-protein adduct; malonaldedehyde (synonym malondialdehyde) acetaldehyde (MAA)-protein adduct].

> <STAR>
3

> <SYNONYM>
MDHDC; MDA-AA; malondialdehyde acetaldehyde; MAA; 4-methyl-1,4-dihydropyridine-3,5-dicarboxaldehyde; 4-methyl-1,4-dihydro-3,5-pyridinedicarboxaldehyde; 4-methyl-1,4-dihydro-3,5-pyridinedicarbaldehyde; 3,5-diformyl-4-methyl-1,4-dihydropyridine

> <IUPAC_NAME>
4-methyl-1,4-dihydropyridine-3,5-dicarbaldehyde

> <FORMULA>
C8H9NO2

> <MASS>
151.16260

> <MONOISOTOPIC_MASS>
151.06333

> <CHARGE>
0

> <SMILES>
CC1C(C=O)=CNC=C1C=O

> <INCHI>
InChI=1S/C8H9NO2/c1-6-7(4-10)2-9-3-8(6)5-11/h2-6,9H,1H3

> <INCHIKEY>
GHUJOXJDUAROKJ-UHFFFAOYSA-N

> <REAXYS_REGISTRY_NUMBER>
1448209

> <PUBMED_CITATION>
23900424; 24168430; 25417811; 26786003; 29348025; 9894024

$$$$

Mrv0541 10281317212D          

 36 39  0  0  0  0            999 V2000
   20.9872  -22.2320    0.0000 N   0  0  0  0  0  0  0  0  0  0  0  0
   20.1622  -22.2321    0.0000 C   0  0  0  0  0  0  0  0  0  0  0  0
   19.7496  -21.5177    0.0000 N   0  0  0  0  0  0  0  0  0  0  0  0
   18.9246  -21.5177    0.0000 C   0  0  0  0  0  0  0  0  0  0  0  0
   18.5122  -22.2322    0.0000 N   0  0  0  0  0  0  0  0  0  0  0  0
   18.9248  -22.9466    0.0000 C   0  0  0  0  0  0  0  0  0  0  0  0
   19.7497  -22.9466    0.0000 C   0  0  0  0  0  0  0  0  0  0  0  0
   20.0047  -23.7311    0.0000 N   0  0  0  0  0  0  0  0  0  0  0  0
   19.3373  -24.2162    0.0000 C   0  0  0  0  0  0  0  0  0  0  0  0
   18.6698  -23.7313    0.0000 N   0  0  0  0  0  0  0  0  0  0  0  0
   17.8851  -23.9864    0.0000 C   0  0  2  0  0  0  0  0  0  0  0  0
   17.2177  -23.5014    0.0000 O   0  0  0  0  0  0  0  0  0  0  0  0
   16.5502  -23.9864    0.0000 C   0  0  1  0  0  0  0  0  0  0  0  0
   16.8053  -24.7710    0.0000 C   0  0  1  0  0  0  0  0  0  0  0  0
   16.3203  -25.4385    0.0000 O   0  0  0  0  0  0  0  0  0  0  0  0
   17.6303  -24.7710    0.0000 C   0  0  1  0  0  0  0  0  0  0  0  0
   18.2630  -25.8375    0.0000 O   0  0  0  0  0  0  0  0  0  0  0  0
   15.7655  -23.7315    0.0000 C   0  0  0  0  0  0  0  0  0  0  0  0
   15.0981  -24.2165    0.0000 O   0  0  0  0  0  0  0  0  0  0  0  0
   14.3444  -23.8810    0.0000 P   0  0  0  0  0  0  0  0  0  0  0  0
   13.6770  -24.3659    0.0000 O   0  0  0  0  0  0  0  0  0  0  0  0
   14.4307  -24.7014    0.0000 O   0  0  0  0  0  0  0  0  0  0  0  0
   14.3593  -22.9618    0.0000 O   0  0  0  0  0  0  0  0  0  0  0  0
   17.9480  -26.8673    0.0000 C   0  0  2  0  0  0  0  0  0  0  0  0
   17.2806  -26.3824    0.0000 O   0  0  0  0  0  0  0  0  0  0  0  0
   16.6131  -26.8673    0.0000 C   0  0  1  0  0  0  0  0  0  0  0  0
   16.8681  -27.6519    0.0000 C   0  0  1  0  0  0  0  0  0  0  0  0
   16.3832  -28.3195    0.0000 O   0  0  0  0  0  0  0  0  0  0  0  0
   17.6931  -27.6519    0.0000 C   0  0  1  0  0  0  0  0  0  0  0  0
   18.1781  -28.3193    0.0000 O   0  0  0  0  0  0  0  0  0  0  0  0
   15.8284  -26.6124    0.0000 C   0  0  0  0  0  0  0  0  0  0  0  0
   15.1610  -27.0974    0.0000 O   0  0  0  0  0  0  0  0  0  0  0  0
   14.4073  -26.7619    0.0000 P   0  0  0  0  0  0  0  0  0  0  0  0
   13.7399  -27.2469    0.0000 O   0  0  0  0  0  0  0  0  0  0  0  0
   14.4936  -27.5824    0.0000 O   0  0  0  0  0  0  0  0  0  0  0  0
   14.4222  -25.8427    0.0000 O   0  0  0  0  0  0  0  0  0  0  0  0
  1  2  1  0  0  0  0
  2  3  2  0  0  0  0
  2  7  1  0  0  0  0
  3  4  1  0  0  0  0
  4  5  2  0  0  0  0
  5  6  1  0  0  0  0
  6  7  2  0  0  0  0
  6 10  1  0  0  0  0
  7  8  1  0  0  0  0
  8  9  2  0  0  0  0
  9 10  1  0  0  0  0
 11 10  1  1  0  0  0
 11 12  1  0  0  0  0
 11 16  1  0  0  0  0
 12 13  1  0  0  0  0
 13 18  1  1  0  0  0
 13 14  1  0  0  0  0
 14 15  1  6  0  0  0
 14 16  1  0  0  0  0
 16 17  1  6  0  0  0
 18 19  1  0  0  0  0
 19 20  1  0  0  0  0
 20 21  1  0  0  0  0
 20 22  1  0  0  0  0
 20 23  2  0  0  0  0
 24 17  1  1  0  0  0
 24 25  1  0  0  0  0
 24 29  1  0  0  0  0
 25 26  1  0  0  0  0
 26 31  1  1  0  0  0
 26 27  1  0  0  0  0
 27 28  1  6  0  0  0
 27 29  1  0  0  0  0
 29 30  1  6  0  0  0
 31 32  1  0  0  0  0
 32 33  1  0  0  0  0
 33 34  1  0  0  0  0
 33 35  1  0  0  0  0
 33 36  2  0  0  0  0
M  END
> <ID>
CHEBI:76110

> <NAME>
2'-(5-phosphoribosyl)-5'-AMP

> <DEFINITION>
An AMP-sugar in which the 2'-hydroxy group of AMP carries a 5-phospho-β-D-ribosyl substituent. Monomer unit of poly(ADP-Rib) [poly(adenosine diphosphate ribose)].

> <STAR>
3

> <SYNONYM>
Ribosyladenosine 5',5''-bis(phosphate); O(2')-(O(5')-phosphono-beta-D-ribofuranosyl)-[5']adenylic acid; Ado(P)-Rib-P; 2-(5''-Phosphoribosyl)-5'-amp; 2'-O-(5-O-phosphono-beta-D-ribofuranosyl)-5'-adenylic acid; 2'-(5-phosphoribosyl)adenosine 5'-monophosphate; 2'-(5''-Phosphoribosyl)-5'-adenosine monophosphate; 2'-(5"-phosphoribosyl)adenosine 5'-monophosphate; 2'-(1"-ribosyl)adenosine 5',5"-bis(phosphate)

> <IUPAC_NAME>
2'-O-(5-O-phosphono-beta-D-ribofuranosyl)adenosine 5'-(dihydrogen phosphate)

> <FORMULA>
C15H23N5O14P2

> <MASS>
559.31570

> <MONOISOTOPIC_MASS>
559.07167

> <CHARGE>
0

> <SMILES>
Nc1ncnc2n(cnc12)[C@@H]1O[C@H](COP(O)(O)=O)[C@@H](O)[C@H]1O[C@@H]1O[C@H](COP(O)(O)=O)[C@@H](O)[C@H]1O

> <INCHI>
InChI=1S/C15H23N5O14P2/c16-12-7-13(18-3-17-12)20(4-19-7)14-11(9(22)6(32-14)2-31-36(27,28)29)34-15-10(23)8(21)5(33-15)1-30-35(24,25)26/h3-6,8-11,14-15,21-23H,1-2H2,(H2,16,17,18)(H2,24,25,26)(H2,27,28,29)/t5-,6-,8-,9-,10-,11-,14-,15+/m1/s1

> <INCHIKEY>
BHIWBSNWEZIHHL-ZQSHOCFMSA-N

> <CAS_REGISTRY_NUMBER>
15720-01-1

> <REAXYS_REGISTRY_NUMBER>
1202577

> <CHEMIDPLUS>
15720-01-1

> <PUBMED_CITATION>
6206890

$$$$

Mrv0541 11051317582D          

 26 28  0  0  0  0            999 V2000
    4.8830   -5.3344    0.0000 C   0  0  0  0  0  0  0  0  0  0  0  0
    4.1685   -5.7469    0.0000 C   0  0  0  0  0  0  0  0  0  0  0  0
    4.8830   -4.5093    0.0000 C   0  0  0  0  0  0  0  0  0  0  0  0
    3.4540   -5.3343    0.0000 C   0  0  0  0  0  0  0  0  0  0  0  0
    4.1685   -4.0968    0.0000 C   0  0  0  0  0  0  0  0  0  0  0  0
    3.4540   -4.5093    0.0000 C   0  0  0  0  0  0  0  0  0  0  0  0
    5.5974   -4.0968    0.0000 C   0  0  0  0  0  0  0  0  0  0  0  0
    6.3119   -4.5093    0.0000 C   0  0  0  0  0  0  0  0  0  0  0  0
    7.0264   -4.0969    0.0000 C   0  0  0  0  0  0  0  0  0  0  0  0
    6.3119   -5.3344    0.0000 C   0  0  0  0  0  0  0  0  0  0  0  0
    7.7409   -4.5094    0.0000 C   0  0  0  0  0  0  0  0  0  0  0  0
    7.0264   -5.7469    0.0000 C   0  0  0  0  0  0  0  0  0  0  0  0
    7.7409   -5.3344    0.0000 C   0  0  0  0  0  0  0  0  0  0  0  0
    5.5974   -3.2718    0.0000 C   0  0  0  0  0  0  0  0  0  0  0  0
    4.8830   -2.8593    0.0000 C   0  0  0  0  0  0  0  0  0  0  0  0
    6.3120   -2.8593    0.0000 C   0  0  0  0  0  0  0  0  0  0  0  0
    4.8830   -2.0343    0.0000 C   0  0  0  0  0  0  0  0  0  0  0  0
    6.3120   -2.0343    0.0000 C   0  0  0  0  0  0  0  0  0  0  0  0
    5.5975   -1.6218    0.0000 C   0  0  0  0  0  0  0  0  0  0  0  0
    8.4553   -5.7469    0.0000 N   0  0  0  0  0  0  0  0  0  0  0  0
    2.7395   -5.7468    0.0000 N   0  0  0  0  0  0  0  0  0  0  0  0
    2.0251   -5.3342    0.0000 C   0  0  0  0  0  0  0  0  0  0  0  0
    2.7395   -6.5718    0.0000 C   0  0  0  0  0  0  0  0  0  0  0  0
    8.4553   -6.5719    0.0000 C   0  0  0  0  0  0  0  0  0  0  0  0
    9.1698   -5.3345    0.0000 C   0  0  0  0  0  0  0  0  0  0  0  0
    5.5975   -0.7968    0.0000 O   0  0  0  0  0  0  0  0  0  0  0  0
  2  1  1  0  0  0  0
  3  1  2  0  0  0  0
  4  2  2  0  0  0  0
  5  3  1  0  0  0  0
  6  4  1  0  0  0  0
  6  5  2  0  0  0  0
  3  7  1  0  0  0  0
  9  8  1  0  0  0  0
 10  8  2  0  0  0  0
 11  9  2  0  0  0  0
 12 10  1  0  0  0  0
 13 11  1  0  0  0  0
 13 12  2  0  0  0  0
  7  8  1  0  0  0  0
 15 14  1  0  0  0  0
 16 14  2  0  0  0  0
 17 15  2  0  0  0  0
 18 16  1  0  0  0  0
 19 17  1  0  0  0  0
 19 18  2  0  0  0  0
  7 14  1  0  0  0  0
 13 20  1  0  0  0  0
  4 21  1  0  0  0  0
 21 22  1  0  0  0  0
 21 23  1  0  0  0  0
 20 24  1  0  0  0  0
 20 25  1  0  0  0  0
 19 26  1  0  0  0  0
M  END
> <ID>
CHEBI:76210

> <NAME>
4-{bis[4-(dimethylamino)phenyl]methyl}phenol

> <DEFINITION>
A tertiary amino compound in which the para positions of the three phenyl rings in triphenylmethane are substituted with two dimethylamino groups and one hydroxy group.

> <STAR>
3

> <SYNONYM>
4-hydroxy-4',4''-(dimethylamino)triphenylmethane; (4-hydroxyphenyl)bis(4-dimethylaminophenyl)methane

> <IUPAC_NAME>
4-{bis[4-(dimethylamino)phenyl]methyl}phenol

> <FORMULA>
C23H26N2O

> <MASS>
346.46530

> <MONOISOTOPIC_MASS>
346.20451

> <CHARGE>
0

> <SMILES>
CN(C)c1ccc(cc1)C(c1ccc(O)cc1)c1ccc(cc1)N(C)C

> <INCHI>
InChI=1S/C23H26N2O/c1-24(2)20-11-5-17(6-12-20)23(19-9-15-22(26)16-10-19)18-7-13-21(14-8-18)25(3)4/h5-16,23,26H,1-4H3

> <INCHIKEY>
ZTXGOUSDKAXJJB-UHFFFAOYSA-N

> <CAS_REGISTRY_NUMBER>
652-46-0

> <REAXYS_REGISTRY_NUMBER>
2992513

> <PDBECHEM_ACCESSION>
1OM

$$$$

Mrv0541 01031411482D          

 12 12  0  0  0  0            999 V2000
    5.0518    0.2189    0.0000 C   0  0  0  0  0  0  0  0  0  0  0  0
    5.0518   -0.6061    0.0000 C   0  0  0  0  0  0  0  0  0  0  0  0
    4.3372    0.6314    0.0000 C   0  0  0  0  0  0  0  0  0  0  0  0
    4.3372   -1.0186    0.0000 C   0  0  0  0  0  0  0  0  0  0  0  0
    3.6228    0.2189    0.0000 C   0  0  0  0  0  0  0  0  0  0  0  0
    3.6228   -0.6061    0.0000 C   0  0  0  0  0  0  0  0  0  0  0  0
    5.7663    0.6314    0.0000 C   0  0  0  0  0  0  0  0  0  0  0  0
    6.4808    0.2189    0.0000 C   0  0  1  0  0  0  0  0  0  0  0  0
    7.1952    0.6314    0.0000 N   0  0  0  0  0  0  0  0  0  0  0  0
    7.9097    0.2190    0.0000 C   0  0  0  0  0  0  0  0  0  0  0  0
    6.4808   -0.6061    0.0000 C   0  0  0  0  0  0  0  0  0  0  0  0
    2.9084   -1.0186    0.0000 O   0  0  0  0  0  0  0  0  0  0  0  0
  2  1  1  0  0  0  0
  3  1  2  0  0  0  0
  4  2  2  0  0  0  0
  5  3  1  0  0  0  0
  6  4  1  0  0  0  0
  6  5  2  0  0  0  0
  1  7  1  0  0  0  0
  7  8  1  0  0  0  0
  8  9  1  0  0  0  0
  9 10  1  0  0  0  0
  8 11  1  1  0  0  0
  6 12  1  0  0  0  0
M  END
> <ID>
CHEBI:76833

> <NAME>
4-hydroxymethamphetamine

> <DEFINITION>
A phenolic compound, the structure of which is that of methamphetamine methyl-substituted at the 4-position of the phenyl ring.

> <STAR>
3

> <SYNONYM>
p-hydroxymethamphetamine; (+)-4-hydroxymethamphetamine

> <IUPAC_NAME>
4-[(2S)-2-(methylamino)propyl]phenol

> <FORMULA>
C10H15NO

> <MASS>
165.23220

> <MONOISOTOPIC_MASS>
165.11536

> <CHARGE>
0

> <SMILES>
CN[C@@H](C)Cc1ccc(O)cc1

> <INCHI>
InChI=1S/C10H15NO/c1-8(11-2)7-9-3-5-10(12)6-4-9/h3-6,8,11-12H,7H2,1-2H3/t8-/m0/s1

> <INCHIKEY>
SBUQZKJEOOQSBV-QMMMGPOBSA-N

> <CAS_REGISTRY_NUMBER>
85482-67-3

> <REAXYS_REGISTRY_NUMBER>
3197899

> <PUBMED_CITATION>
16363483; 24349338; 6506759; 9210980

$$$$

Marvin  05211011242D          

 28 30  0  0  0  0            999 V2000
   -2.8125    3.5438    0.0000 C   0  0  0  0  0  0  0  0  0  0  0  0
   -3.5270    3.1313    0.0000 C   0  0  0  0  0  0  0  0  0  0  0  0
   -3.5270    2.3062    0.0000 C   0  0  0  0  0  0  0  0  0  0  0  0
   -2.8125    1.8937    0.0000 C   0  0  0  0  0  0  0  0  0  0  0  0
   -2.0980    2.3062    0.0000 C   0  0  0  0  0  0  0  0  0  0  0  0
   -2.0980    3.1313    0.0000 C   0  0  0  0  0  0  0  0  0  0  0  0
   -1.3836    3.5438    0.0000 C   0  0  0  0  0  0  0  0  0  0  0  0
    0.0454    4.3688    0.0000 O   0  0  0  0  0  0  0  0  0  0  0  0
    0.0454    3.5438    0.0000 C   0  0  0  0  0  0  0  0  0  0  0  0
    0.7598    3.1313    0.0000 O   0  0  0  0  0  0  0  0  0  0  0  0
   -0.6691    3.1313    0.0000 C   0  0  1  0  0  0  0  0  0  0  0  0
   -0.6691    2.3063    0.0000 N   0  0  0  0  0  0  0  0  0  0  0  0
    0.7598    2.3063    0.0000 O   0  0  0  0  0  0  0  0  0  0  0  0
    0.0454    1.8938    0.0000 C   0  0  0  0  0  0  0  0  0  0  0  0
    0.0454    1.0688    0.0000 C   0  0  0  0  0  0  0  0  0  0  0  0
   -0.6691    0.6562    0.0000 C   0  0  0  0  0  0  0  0  0  0  0  0
    0.7598    0.6562    0.0000 C   0  0  0  0  0  0  0  0  0  0  0  0
    0.7598   -0.1688    0.0000 C   0  0  0  0  0  0  0  0  0  0  0  0
    0.0454   -0.5813    0.0000 C   0  0  0  0  0  0  0  0  0  0  0  0
    0.0454   -1.4063    0.0000 C   0  0  0  0  0  0  0  0  0  0  0  0
    1.4743   -0.5813    0.0000 C   0  0  0  0  0  0  0  0  0  0  0  0
    2.1888   -0.1688    0.0000 O   0  0  0  0  0  0  0  0  0  0  0  0
    1.4743   -1.4063    0.0000 O   0  0  0  0  0  0  0  0  0  0  0  0
   -0.6691   -0.1688    0.0000 C   0  0  0  0  0  0  0  0  0  0  0  0
   -1.3836   -0.5813    0.0000 Cl  0  0  0  0  0  0  0  0  0  0  0  0
    0.7598   -1.8188    0.0000 C   0  0  2  0  0  0  0  0  0  0  0  0
    0.7598   -2.6438    0.0000 C   0  0  0  0  0  0  0  0  0  0  0  0
    1.4743    1.0687    0.0000 O   0  0  0  0  0  0  0  0  0  0  0  0
  1  2  2  0  0  0  0
  1  6  1  0  0  0  0
  2  3  1  0  0  0  0
  3  4  2  0  0  0  0
  4  5  1  0  0  0  0
  5  6  2  0  0  0  0
  6  7  1  0  0  0  0
  7 11  1  0  0  0  0
 11  9  1  0  0  0  0
  9  8  2  0  0  0  0
  9 10  1  0  0  0  0
 11 12  1  1  0  0  0
 12 14  1  0  0  0  0
 14 13  2  0  0  0  0
 14 15  1  0  0  0  0
 15 16  2  0  0  0  0
 15 17  1  0  0  0  0
 16 24  1  0  0  0  0
 24 19  2  0  0  0  0
 18 17  2  0  0  0  0
 18 21  1  0  0  0  0
 18 19  1  0  0  0  0
 19 20  1  0  0  0  0
 20 26  1  0  0  0  0
 26 23  1  0  0  0  0
 23 21  1  0  0  0  0
 21 22  2  0  0  0  0
 24 25  1  0  0  0  0
 26 27  1  6  0  0  0
 17 28  1  0  0  0  0
M  END
> <ID>
CHEBI:7719

> <NAME>
ochratoxin A

> <DEFINITION>
A phenylalanine derivative resulting from the formal condensation of the amino group of L-phenylalanine with the carboxy group of (3R)-5-chloro-8-hydroxy-3-methyl-1-oxo-3,4-dihydro-1H-2-benzopyran-7-carboxylic acid (ochratoxin α). It is among the most widely occurring food-contaminating mycotoxins, produced by Aspergillus ochraceus, Aspergillus carbonarius and Penicillium verrucosum.

> <STAR>
3

> <SYNONYM>
OTA; Ochratoxin A; N-{[(3R)-5-chloro-8-hydroxy-3-methyl-1-oxo-3,4-dihydro-1H-isochromen-7-yl]carbonyl}-L-phenylalanine; N-[(3R)-5-chloro-8-hydroxy-3-methyl-1-oxo-3,4-dihydro-1H-2-benzopyran-7-carbonyl]-L-phenylalanine; N-(((3R)-5-chloro-8-hydroxy-3-methyl-1-oxo-7-isochromanyl)carbonyl)-3-phenyl-L-alanine; (R)-N-((5-chloro-3,4-dihydro-8-hydroxy-3-methyl-1-oxo-1H-2-benzopyran-7-yl)carbonyl)phenylalanine; (2S)-2-{[(3R)-5-chloro-8-hydroxy-3-methyl-1-oxo-3,4-dihydro-1H-2-benzopyran-7-carbonyl]amino}-3-phenylpropanoic acid; (-)-N-((5-chloro-8-hydroxy-3-methyl-1-oxo-7-isochromanyl)carbonyl)-3-phenylalanine

> <IUPAC_NAME>
N-{[(3R)-5-chloro-8-hydroxy-3-methyl-1-oxo-3,4-dihydro-1H-2-benzopyran-7-yl]carbonyl}-L-phenylalanine

> <FORMULA>
C20H18ClNO6

> <MASS>
403.81300

> <MONOISOTOPIC_MASS>
403.08227

> <CHARGE>
0

> <SMILES>
C[C@@H]1Cc2c(Cl)cc(C(=O)N[C@@H](Cc3ccccc3)C(O)=O)c(O)c2C(=O)O1

> <INCHI>
InChI=1S/C20H18ClNO6/c1-10-7-12-14(21)9-13(17(23)16(12)20(27)28-10)18(24)22-15(19(25)26)8-11-5-3-2-4-6-11/h2-6,9-10,15,23H,7-8H2,1H3,(H,22,24)(H,25,26)/t10-,15+/m1/s1

> <INCHIKEY>
RWQKHEORZBHNRI-BMIGLBTASA-N

> <BEILSTEIN_REGISTRY_NUMBER>
1301486

> <CAS_REGISTRY_NUMBER>
303-47-9

> <REAXYS_REGISTRY_NUMBER>
1301486

> <CHEMIDPLUS>
303-47-9

> <HMDB_ACCESSION>
HMDB0029399

> <KEGG_COMPOUND_ACCESSION>
C09955

> <KNAPSACK_ACCESSION>
C00003008

> <LINCS_ACCESSION>
LSM-5521

> <WIKIPEDIA_ACCESSION>
Ochratoxin_A

> <PUBMED_CITATION>
11513689; 11899122; 15056805; 16022500; 16097797; 16293235; 16332622; 16332628; 16781114; 17195275; 17218050; 17580629; 18638518; 18680942; 19919898; 20201966; 23282670; 23296271; 23358140; 23369011; 29950703; 33078253; 33138019; 33171643; 8941986; 8956233; 9894829

$$$$

Mrv0541 02071413132D          

 27 29  0  0  0  0            999 V2000
    1.9060  -10.7941    0.0000 C   0  0  1  0  0  0  0  0  0  0  0  0
    2.6148  -11.2048    0.0000 C   0  0  0  0  0  0  0  0  0  0  0  0
    1.1902  -11.2048    0.0000 C   0  0  2  0  0  0  0  0  0  0  0  0
    1.9094   -9.9732    0.0000 C   0  0  0  0  0  0  0  0  0  0  0  0
    2.6148  -12.0329    0.0000 C   0  0  0  0  0  0  0  0  0  0  0  0
    3.3305  -10.7941    0.0000 C   0  0  0  0  0  0  0  0  0  0  0  0
    1.1902  -12.0329    0.0000 C   0  0  0  0  0  0  0  0  0  0  0  0
    0.4779  -10.7907    0.0000 C   0  0  0  0  0  0  0  0  0  0  0  0
    1.1938   -9.5593    0.0000 C   0  0  0  0  0  0  0  0  0  0  0  0
    1.9060  -12.4433    0.0000 O   0  0  0  0  0  0  0  0  0  0  0  0
    3.3305  -12.4433    0.0000 C   0  0  0  0  0  0  0  0  0  0  0  0
    4.0393  -11.2048    0.0000 C   0  0  0  0  0  0  0  0  0  0  0  0
    3.3305   -9.9698    0.0000 O   0  0  0  0  0  0  0  0  0  0  0  0
    0.4779   -9.9698    0.0000 C   0  0  0  0  0  0  0  0  0  0  0  0
    1.1972   -8.7382    0.0000 C   0  0  0  0  0  0  0  0  0  0  0  0
    4.0393  -12.0329    0.0000 C   0  0  0  0  0  0  0  0  0  0  0  0
    4.7515  -12.4433    0.0000 C   0  0  0  0  0  0  0  0  0  0  0  0
    5.4673  -12.0293    0.0000 C   0  0  0  0  0  0  0  0  0  0  0  0
    6.1760  -12.4399    0.0000 C   0  0  0  0  0  0  0  0  0  0  0  0
    6.8918  -12.0293    0.0000 C   0  0  0  0  0  0  0  0  0  0  0  0
    7.6005  -12.4399    0.0000 C   0  0  0  0  0  0  0  0  0  0  0  0
    2.5762  -10.3731    0.0000 H   0  0  0  0  0  0  0  0  0  0  0  0
    0.3692  -11.7487    0.0000 H   0  0  0  0  0  0  0  0  0  0  0  0
    1.1902  -12.8579    0.0000 C   0  0  0  0  0  0  0  0  0  0  0  0
    0.4757  -12.4454    0.0000 C   0  0  0  0  0  0  0  0  0  0  0  0
    1.9135   -8.3286    0.0000 O   0  0  0  0  0  0  0  0  0  0  0  0
    0.4844   -8.3227    0.0000 O   0  0  0  0  0  0  0  0  0  0  0  0
  1  2  1  0  0  0  0
  1  3  1  0  0  0  0
  1  4  1  0  0  0  0
  2  5  2  0  0  0  0
  2  6  1  0  0  0  0
  3  7  1  0  0  0  0
  3  8  1  0  0  0  0
  4  9  2  0  0  0  0
  5 10  1  0  0  0  0
  5 11  1  0  0  0  0
  6 12  2  0  0  0  0
  6 13  1  0  0  0  0
  8 14  1  0  0  0  0
  9 15  1  0  0  0  0
 11 16  2  0  0  0  0
 16 17  1  0  0  0  0
 17 18  1  0  0  0  0
 18 19  1  0  0  0  0
 19 20  1  0  0  0  0
 20 21  1  0  0  0  0
  7 10  1  0  0  0  0
  9 14  1  0  0  0  0
 12 16  1  0  0  0  0
  1 22  1  6  0  0  0
  3 23  1  1  0  0  0
  7 24  1  0  0  0  0
  7 25  1  0  0  0  0
 15 26  1  0  0  0  0
 15 27  2  0  0  0  0
M  END
> <ID>
CHEBI:77273

> <NAME>
11-nor-9-carboxy-Delta(9)-tetrahydrocannabinol

> <DEFINITION>
A phytocannabinoid that is Δ9-tetrahydrocannabinol in which the C-11 methyl has been fully oxidised to a carboxy group. Further enzymatic oxidation product of 11-hydroxy-Δ9-tetrahydrocannabinol.

> <STAR>
3

> <SYNONYM>
THC-COOH; THC-11-oic acid; 11-nor-9-carboxy-THC; 11-nor-9-carboxy-delta-9-tetrahydrocannabinol; 11-COOH-THC; (6aR,10aR)-6a,7,8,10a-tetrahydro-1-hydroxy-6,6-dimethyl-3-pentyl-6H-dibenzo[b,d]pyran-9-carboxylic acid

> <IUPAC_NAME>
(6aR,10aR)-1-hydroxy-6,6-dimethyl-3-pentyl-6a,7,8,10a-tetrahydro-6H-benzo[c]chromene-9-carboxylic acid

> <FORMULA>
C21H28O4

> <MASS>
344.44460

> <MONOISOTOPIC_MASS>
344.19876

> <CHARGE>
0

> <SMILES>
CCCCCc1cc(O)c2[C@@H]3C=C(CC[C@H]3C(C)(C)Oc2c1)C(O)=O

> <INCHI>
InChI=1S/C21H28O4/c1-4-5-6-7-13-10-17(22)19-15-12-14(20(23)24)8-9-16(15)21(2,3)25-18(19)11-13/h10-12,15-16,22H,4-9H2,1-3H3,(H,23,24)/t15-,16-/m1/s1

> <INCHIKEY>
YOVRGSHRZRJTLZ-HZPDHXFCSA-N

> <CAS_REGISTRY_NUMBER>
56354-06-4

> <REAXYS_REGISTRY_NUMBER>
6374032

> <CHEMIDPLUS>
56354-06-4

> <WIKIPEDIA_ACCESSION>
11-nor-9-Carboxy-THC

> <PUBMED_CITATION>
1324293; 20630472; 21871147; 24185550; 28171147

$$$$

Marvin  11190914022D          

 26 29  0  0  0  0            999 V2000
   12.9527   -5.8740    0.0000 C   0  0  0  0  0  0  0  0  0  0  0  0
   12.2381   -6.2863    0.0000 C   0  0  0  0  0  0  0  0  0  0  0  0
   12.9527   -5.0495    0.0000 C   0  0  0  0  0  0  0  0  0  0  0  0
   13.6674   -6.2863    0.0000 N   0  0  0  0  0  0  0  0  0  0  0  0
   11.5235   -5.8740    0.0000 C   0  0  0  0  0  0  0  0  0  0  0  0
   12.2381   -7.1108    0.0000 O   0  0  0  0  0  0  0  0  0  0  0  0
   13.6674   -4.6371    0.0000 C   0  0  0  0  0  0  0  0  0  0  0  0
   12.2381   -4.6371    0.0000 C   0  0  0  0  0  0  0  0  0  0  0  0
   14.3820   -5.8740    0.0000 C   0  0  0  0  0  0  0  0  0  0  0  0
   13.6674   -7.1108    0.0000 C   0  0  0  0  0  0  0  0  0  0  0  0
   10.8089   -6.2863    0.0000 N   0  0  0  0  0  0  0  0  0  0  0  0
   11.5235   -5.0495    0.0000 C   0  0  0  0  0  0  0  0  0  0  0  0
   12.9527   -7.5231    0.0000 C   0  0  0  0  0  0  0  0  0  0  0  0
   14.3820   -5.0495    0.0000 C   0  0  0  0  0  0  0  0  0  0  0  0
   13.6674   -3.8126    0.0000 O   0  0  0  0  0  0  0  0  0  0  0  0
   14.3820   -7.5231    0.0000 C   0  0  0  0  0  0  0  0  0  0  0  0
   10.0943   -5.8740    0.0000 C   0  0  0  0  0  0  0  0  0  0  0  0
   10.8089   -7.1108    0.0000 C   0  0  0  0  0  0  0  0  0  0  0  0
   10.8089   -4.6371    0.0000 F   0  0  0  0  0  0  0  0  0  0  0  0
   15.0966   -4.6371    0.0000 C   0  0  0  0  0  0  0  0  0  0  0  0
    9.3797   -6.2863    0.0000 C   0  0  0  0  0  0  0  0  0  0  0  0
   10.0943   -7.5231    0.0000 C   0  0  0  0  0  0  0  0  0  0  0  0
   15.0966   -3.8126    0.0000 O   0  0  0  0  0  0  0  0  0  0  0  0
   15.8112   -5.0495    0.0000 O   0  0  0  0  0  0  0  0  0  0  0  0
    9.3797   -7.1108    0.0000 N   0  0  0  0  0  0  0  0  0  0  0  0
    8.6651   -7.5231    0.0000 C   0  0  0  0  0  0  0  0  0  0  0  0
  1  2  1  0  0  0  0
  1  3  2  0  0  0  0
  1  4  1  0  0  0  0
  2  5  2  0  0  0  0
  2  6  1  0  0  0  0
  3  7  1  0  0  0  0
  3  8  1  0  0  0  0
  4  9  1  0  0  0  0
  4 10  1  0  0  0  0
  5 11  1  0  0  0  0
  5 12  1  0  0  0  0
  6 13  1  0  0  0  0
  7 14  1  0  0  0  0
  7 15  2  0  0  0  0
 10 16  1  0  0  0  0
 11 17  1  0  0  0  0
 11 18  1  0  0  0  0
 12 19  1  0  0  0  0
 14 20  1  0  0  0  0
 17 21  1  0  0  0  0
 18 22  1  0  0  0  0
 20 23  2  0  0  0  0
 20 24  1  0  0  0  0
 21 25  1  0  0  0  0
 25 26  1  0  0  0  0
  8 12  2  0  0  0  0
  9 14  2  0  0  0  0
 10 13  1  0  0  0  0
 22 25  1  0  0  0  0
M  END
> <ID>
CHEBI:7731

> <NAME>
ofloxacin

> <DEFINITION>
An oxazinoquinolone carrying carboxy, fluoro, methyl and 4-methylpiperazino substituents. A synthetic fluoroquinolone antibacterial agent, it inhibits the supercoiling activity of bacterial DNA gyrase, halting DNA replication.

> <STAR>
3

> <SECONDARY_ID>
CHEBI:100146

> <SYNONYM>
OFLX; 8-Fluoro-3-methyl-9-(4-methyl-piperazin-1-yl)-6-oxo-2,3-dihydro-6H-1-oxa-3a-aza-phenalene-5-carboxylic acid

> <IUPAC_NAME>
9-fluoro-3-methyl-10-(4-methylpiperazin-1-yl)-7-oxo-2,3-dihydro-7H-[1,4]oxazino[2,3,4-ij]quinoline-6-carboxylic acid

> <INN>
ofloxacinum; ofloxacino; ofloxacine; ofloxacin; ofloxacin

> <FORMULA>
C18H20FN3O4

> <MASS>
361.36750

> <MONOISOTOPIC_MASS>
361.14378

> <CHARGE>
0

> <SMILES>
CC1COc2c(N3CCN(C)CC3)c(F)cc3c2n1cc(C(O)=O)c3=O

> <INCHI>
InChI=1S/C18H20FN3O4/c1-10-9-26-17-14-11(16(23)12(18(24)25)8-22(10)14)7-13(19)15(17)21-5-3-20(2)4-6-21/h7-8,10H,3-6,9H2,1-2H3,(H,24,25)

> <INCHIKEY>
GSDSWSVVBLHKDQ-UHFFFAOYSA-N

> <CAS_REGISTRY_NUMBER>
82419-36-1

> <REAXYS_REGISTRY_NUMBER>
3657947

> <CHEMIDPLUS>
82419-36-1

> <DRUGBANK_ACCESSION>
DB01165

> <HMDB_ACCESSION>
HMDB0015296

> <KEGG_COMPOUND_ACCESSION>
C07321

> <KEGG_DRUG_ACCESSION>
D00453

> <LINCS_ACCESSION>
LSM-4370

> <METACYC_ACCESSION>
CPD-12843

> <WIKIPEDIA_ACCESSION>
Ofloxacin

> <PUBMED_CITATION>
11710934; 15008519; 16669862; 19646516; 24497308; 24550337; 7884650

$$$$

Mrv0541 02211414392D          

 33 35  0  0  0  0            999 V2000
    3.2939   -1.2115    0.0000 O   0  0  0  0  0  0  0  0  0  0  0  0
    1.1503   -4.0987    0.0000 C   0  0  1  0  0  0  0  0  0  0  0  0
    1.1503   -4.9237    0.0000 C   0  0  1  0  0  0  0  0  0  0  0  0
    0.4360   -3.6862    0.0000 O   0  0  0  0  0  0  0  0  0  0  0  0
    0.4360   -5.3362    0.0000 C   0  0  1  0  0  0  0  0  0  0  0  0
   -0.2784   -4.0987    0.0000 C   0  0  2  0  0  0  0  0  0  0  0  0
   -0.2785   -4.9237    0.0000 C   0  0  2  0  0  0  0  0  0  0  0  0
    1.8648   -3.6863    0.0000 O   0  0  0  0  0  0  0  0  0  0  0  0
    1.8647   -5.3362    0.0000 O   0  0  0  0  0  0  0  0  0  0  0  0
    0.4358   -6.1612    0.0000 O   0  0  0  0  0  0  0  0  0  0  0  0
   -0.9930   -5.3361    0.0000 O   0  0  0  0  0  0  0  0  0  0  0  0
   -0.9929   -3.6862    0.0000 C   0  0  0  0  0  0  0  0  0  0  0  0
    2.5794   -1.6239    0.0000 C   0  0  1  0  0  0  0  0  0  0  0  0
    2.5794   -2.4489    0.0000 C   0  0  1  0  0  0  0  0  0  0  0  0
    1.8649   -1.2115    0.0000 O   0  0  0  0  0  0  0  0  0  0  0  0
    1.8648   -2.8613    0.0000 C   0  0  2  0  0  0  0  0  0  0  0  0
    1.1505   -1.6238    0.0000 C   0  0  1  0  0  0  0  0  0  0  0  0
    1.1505   -2.4488    0.0000 C   0  0  1  0  0  0  0  0  0  0  0  0
    3.2938   -2.8615    0.0000 O   0  0  0  0  0  0  0  0  0  0  0  0
    0.4361   -2.8613    0.0000 O   0  0  0  0  0  0  0  0  0  0  0  0
    0.4362   -1.2114    0.0000 C   0  0  0  0  0  0  0  0  0  0  0  0
   -0.2783   -1.6238    0.0000 O   0  0  0  0  0  0  0  0  0  0  0  0
    5.4373    0.0260    0.0000 C   0  0  2  0  0  0  0  0  0  0  0  0
    5.4373   -0.7990    0.0000 C   0  0  1  0  0  0  0  0  0  0  0  0
    4.7228    0.4385    0.0000 O   0  0  0  0  0  0  0  0  0  0  0  0
    4.7228   -1.2115    0.0000 C   0  0  2  0  0  0  0  0  0  0  0  0
    4.0084    0.0260    0.0000 C   0  0  1  0  0  0  0  0  0  0  0  0
    4.0084   -0.7990    0.0000 C   0  0  1  0  0  0  0  0  0  0  0  0
    6.1518    0.4386    0.0000 O   0  0  0  0  0  0  0  0  0  0  0  0
    6.1518   -1.2115    0.0000 O   0  0  0  0  0  0  0  0  0  0  0  0
    4.7228   -2.0365    0.0000 O   0  0  0  0  0  0  0  0  0  0  0  0
    3.2939    0.4385    0.0000 C   0  0  0  0  0  0  0  0  0  0  0  0
    2.5794    0.0260    0.0000 O   0  0  0  0  0  0  0  0  0  0  0  0
  2  3  1  0  0  0  0
  2  4  1  0  0  0  0
  3  5  1  0  0  0  0
  4  6  1  0  0  0  0
  5  7  1  0  0  0  0
  6  7  1  0  0  0  0
  2  8  1  1  0  0  0
  3  9  1  6  0  0  0
  5 10  1  6  0  0  0
  7 11  1  1  0  0  0
  6 12  1  6  0  0  0
 13 14  1  0  0  0  0
 13 15  1  0  0  0  0
 14 16  1  0  0  0  0
 15 17  1  0  0  0  0
 16 18  1  0  0  0  0
 17 18  1  0  0  0  0
 13  1  1  1  0  0  0
 14 19  1  6  0  0  0
 16  8  1  1  0  0  0
 18 20  1  6  0  0  0
 17 21  1  1  0  0  0
 22 21  1  0  0  0  0
 23 24  1  0  0  0  0
 23 25  1  0  0  0  0
 24 26  1  0  0  0  0
 25 27  1  0  0  0  0
 26 28  1  0  0  0  0
 27 28  1  0  0  0  0
 23 29  1  6  0  0  0
 24 30  1  6  0  0  0
 26 31  1  1  0  0  0
 28  1  1  6  0  0  0
 27 32  1  1  0  0  0
 33 32  1  0  0  0  0
M  END
> <ID>
CHEBI:77430

> <NAME>
alpha-L-Rhap-(1->3)-beta-D-Glcp-(1->4)-alpha-D-Glcp

> <DEFINITION>
A linear trisaccharide comprised of α-L-rhamnose, β-D-glucose and α-D-glucose residues linked sequentially (1→3) and (1→4).

> <STAR>
3

> <SYNONYM>
alpha-L-rhamnosyl-(1->3)-beta-D-glucosyl-(1->4)-beta-D-glucose; alpha-L-Rha-(1->3)-beta-D-Glc-(1->4)-alpha-D-Glc

> <IUPAC_NAME>
6-deoxy-alpha-L-mannopyranosyl-(1->3)-beta-D-glucopyranosyl-(1->4)-alpha-D-glucopyranose

> <FORMULA>
C18H32O15

> <MASS>
488.43770

> <MONOISOTOPIC_MASS>
488.17412

> <CHARGE>
0

> <SMILES>
C[C@@H]1O[C@@H](O[C@H]2[C@H](O)[C@@H](CO)O[C@@H](O[C@H]3[C@H](O)[C@@H](O)[C@@H](O)O[C@@H]3CO)[C@@H]2O)[C@H](O)[C@H](O)[C@H]1O

> <INCHI>
InChI=1S/C18H32O15/c1-4-7(21)9(23)12(26)17(29-4)33-15-8(22)5(2-19)31-18(13(15)27)32-14-6(3-20)30-16(28)11(25)10(14)24/h4-28H,2-3H2,1H3/t4-,5+,6+,7-,8+,9+,10+,11+,12+,13+,14+,15-,16-,17-,18-/m0/s1

> <INCHIKEY>
AUNPEJDACLEKSC-SVIWIZGASA-N

> <PUBMED_CITATION>
23795894; 27091615

$$$$

Mrv0541 02211415342D          

 23 24  0  0  1  0            999 V2000
   14.8963  -15.8640    0.0000 C   0  0  2  0  0  0  0  0  0  0  0  0
   14.8963  -16.6890    0.0000 C   0  0  1  0  0  0  0  0  0  0  0  0
   14.1818  -15.4515    0.0000 O   0  0  0  0  0  0  0  0  0  0  0  0
   14.1818  -17.1015    0.0000 C   0  0  2  0  0  0  0  0  0  0  0  0
   13.4673  -15.8640    0.0000 C   0  0  1  0  0  0  0  0  0  0  0  0
   13.4673  -16.6890    0.0000 C   0  0  1  0  0  0  0  0  0  0  0  0
   15.6108  -15.4515    0.0000 O   0  0  0  0  0  0  0  0  0  0  0  0
   15.6108  -17.1015    0.0000 O   0  0  0  0  0  0  0  0  0  0  0  0
   14.1818  -17.9265    0.0000 O   0  0  0  0  0  0  0  0  0  0  0  0
   12.7528  -17.1015    0.0000 O   0  0  0  0  0  0  0  0  0  0  0  0
   12.7528  -15.4515    0.0000 C   0  0  0  0  0  0  0  0  0  0  0  0
   12.0383  -15.8640    0.0000 O   0  0  0  0  0  0  0  0  0  0  0  0
   15.6108  -17.9265    0.0000 C   0  0  2  0  0  0  0  0  0  0  0  0
   16.3252  -18.3390    0.0000 C   0  0  1  0  0  0  0  0  0  0  0  0
   14.8963  -18.3390    0.0000 O   0  0  0  0  0  0  0  0  0  0  0  0
   16.3252  -19.1641    0.0000 C   0  0  2  0  0  0  0  0  0  0  0  0
   14.8962  -19.1641    0.0000 C   0  0  1  0  0  0  0  0  0  0  0  0
   15.6107  -19.5766    0.0000 C   0  0  1  0  0  0  0  0  0  0  0  0
   17.0397  -17.9265    0.0000 O   0  0  0  0  0  0  0  0  0  0  0  0
   17.0396  -19.5766    0.0000 O   0  0  0  0  0  0  0  0  0  0  0  0
   15.6107  -20.4016    0.0000 O   0  0  0  0  0  0  0  0  0  0  0  0
   14.1818  -19.5766    0.0000 C   0  0  0  0  0  0  0  0  0  0  0  0
   14.1818  -20.4016    0.0000 O   0  0  0  0  0  0  0  0  0  0  0  0
  1  2  1  0  0  0  0
  1  3  1  0  0  0  0
  2  4  1  0  0  0  0
  3  5  1  0  0  0  0
  4  6  1  0  0  0  0
  5  6  1  0  0  0  0
  1  7  1  6  0  0  0
  2  8  1  6  0  0  0
  4  9  1  1  0  0  0
  6 10  1  6  0  0  0
  5 11  1  1  0  0  0
 12 11  1  0  0  0  0
 13 14  1  0  0  0  0
 13 15  1  0  0  0  0
 14 16  1  0  0  0  0
 15 17  1  0  0  0  0
 16 18  1  0  0  0  0
 17 18  1  0  0  0  0
 13  8  1  6  0  0  0
 14 19  1  6  0  0  0
 16 20  1  1  0  0  0
 18 21  1  6  0  0  0
 17 22  1  1  0  0  0
 23 22  1  0  0  0  0
M  END
> <ID>
CHEBI:77436

> <NAME>
alpha-D-Glcp-(1->2)-alpha-D-Glcp

> <DEFINITION>
A α-D-Glcp-(1→2)-D-Glcpglycosylglucose in which the carbon bearing the anomeric hydroxy group has α configuration.

> <STAR>
3

> <SYNONYM>
alpha-kojibiose; alpha-D-glucosyl-(1->2)-alpha-D-glucose; alpha-D-Glc-(1->2)-alpha-D-Glc; 2-O-alpha-D-glucopyranosyl-alpha-D-glucopyranose

> <IUPAC_NAME>
alpha-D-glucopyranosyl-(1->2)-alpha-D-glucopyranose

> <FORMULA>
C12H22O11

> <MASS>
342.29650

> <MONOISOTOPIC_MASS>
342.11621

> <CHARGE>
0

> <SMILES>
OC[C@H]1O[C@H](O)[C@H](O[C@H]2O[C@H](CO)[C@@H](O)[C@H](O)[C@H]2O)[C@@H](O)[C@@H]1O

> <INCHI>
InChI=1S/C12H22O11/c13-1-3-6(16)8(18)10(11(20)21-3)23-12-9(19)7(17)5(15)4(2-14)22-12/h3-20H,1-2H2/t3-,4-,5-,6-,7+,8+,9-,10-,11+,12-/m1/s1

> <INCHIKEY>
HIWPGCMGAMJNRG-LFWCVFAXSA-N

> <CAS_REGISTRY_NUMBER>
37169-66-7

> <REAXYS_REGISTRY_NUMBER>
90850

> <CHEMIDPLUS>
37169-66-7

> <PUBMED_CITATION>
23795894; 27091615

$$$$

Mrv0541 02211416022D          

 34 36  0  0  0  0            999 V2000
    9.2874  -11.6834    0.0000 C   0  0  2  0  0  0  0  0  0  0  0  0
    9.2874  -12.5084    0.0000 C   0  0  1  0  0  0  0  0  0  0  0  0
    8.5729  -11.2709    0.0000 O   0  0  0  0  0  0  0  0  0  0  0  0
    8.5729  -12.9209    0.0000 C   0  0  2  0  0  0  0  0  0  0  0  0
    7.8585  -11.6834    0.0000 C   0  0  1  0  0  0  0  0  0  0  0  0
    7.8585  -12.5084    0.0000 C   0  0  1  0  0  0  0  0  0  0  0  0
   10.0019  -11.2709    0.0000 O   0  0  0  0  0  0  0  0  0  0  0  0
   10.0019  -12.9209    0.0000 O   0  0  0  0  0  0  0  0  0  0  0  0
    8.5729  -13.7459    0.0000 O   0  0  0  0  0  0  0  0  0  0  0  0
    7.1440  -12.9209    0.0000 O   0  0  0  0  0  0  0  0  0  0  0  0
    7.1440  -11.2709    0.0000 C   0  0  0  0  0  0  0  0  0  0  0  0
    6.4295  -11.6834    0.0000 O   0  0  0  0  0  0  0  0  0  0  0  0
   10.0019  -13.7459    0.0000 C   0  0  2  0  0  0  0  0  0  0  0  0
   10.7163  -14.1584    0.0000 C   0  0  1  0  0  0  0  0  0  0  0  0
    9.2874  -14.1584    0.0000 O   0  0  0  0  0  0  0  0  0  0  0  0
   10.7163  -14.9834    0.0000 C   0  0  2  0  0  0  0  0  0  0  0  0
    9.2874  -14.9834    0.0000 C   0  0  1  0  0  0  0  0  0  0  0  0
   10.0018  -15.3959    0.0000 C   0  0  1  0  0  0  0  0  0  0  0  0
   11.4308  -13.7459    0.0000 O   0  0  0  0  0  0  0  0  0  0  0  0
   11.4308  -15.3960    0.0000 O   0  0  0  0  0  0  0  0  0  0  0  0
   10.0018  -16.2209    0.0000 O   0  0  0  0  0  0  0  0  0  0  0  0
    8.5729  -15.3959    0.0000 C   0  0  0  0  0  0  0  0  0  0  0  0
    7.8584  -14.9834    0.0000 O   0  0  0  0  0  0  0  0  0  0  0  0
    9.2874  -16.6334    0.0000 C   0  0  1  0  0  0  0  0  0  0  0  0
    9.2874  -17.4584    0.0000 C   0  0  1  0  0  0  0  0  0  0  0  0
    8.5728  -16.2209    0.0000 O   0  0  0  0  0  0  0  0  0  0  0  0
    8.5728  -17.8709    0.0000 C   0  0  2  0  0  0  0  0  0  0  0  0
    7.8584  -16.6334    0.0000 C   0  0  1  0  0  0  0  0  0  0  0  0
    7.8584  -17.4584    0.0000 C   0  0  1  0  0  0  0  0  0  0  0  0
   10.0018  -17.8709    0.0000 O   0  0  0  0  0  0  0  0  0  0  0  0
    8.5728  -18.6959    0.0000 O   0  0  0  0  0  0  0  0  0  0  0  0
    7.1439  -17.8709    0.0000 O   0  0  0  0  0  0  0  0  0  0  0  0
    7.1439  -16.2209    0.0000 C   0  0  0  0  0  0  0  0  0  0  0  0
    6.4295  -16.6334    0.0000 O   0  0  0  0  0  0  0  0  0  0  0  0
  1  2  1  0  0  0  0
  1  3  1  0  0  0  0
  2  4  1  0  0  0  0
  3  5  1  0  0  0  0
  4  6  1  0  0  0  0
  5  6  1  0  0  0  0
  1  7  1  6  0  0  0
  2  8  1  6  0  0  0
  4  9  1  1  0  0  0
  6 10  1  6  0  0  0
  5 11  1  1  0  0  0
 12 11  1  0  0  0  0
 13 14  1  0  0  0  0
 13 15  1  0  0  0  0
 14 16  1  0  0  0  0
 15 17  1  0  0  0  0
 16 18  1  0  0  0  0
 17 18  1  0  0  0  0
 13  8  1  6  0  0  0
 14 19  1  6  0  0  0
 16 20  1  1  0  0  0
 18 21  1  6  0  0  0
 17 22  1  1  0  0  0
 22 23  1  0  0  0  0
 24 25  1  0  0  0  0
 24 26  1  0  0  0  0
 25 27  1  0  0  0  0
 26 28  1  0  0  0  0
 27 29  1  0  0  0  0
 28 29  1  0  0  0  0
 24 21  1  1  0  0  0
 25 30  1  6  0  0  0
 27 31  1  1  0  0  0
 29 32  1  6  0  0  0
 28 33  1  1  0  0  0
 34 33  1  0  0  0  0
M  END
> <ID>
CHEBI:77440

> <NAME>
beta-D-Glcp-(1->4)-alpha-D-Glcp-(1->2)-alpha-D-Glcp

> <DEFINITION>
A glucotriose consisting of one β-D-glucose and two α-D-glucose residues linked sequentially (1→4) and (1→2).

> <STAR>
3

> <SYNONYM>
beta-D-glucosyl-(1->4)-alpha-D-glucosyl-(1->2)-alpha-D-glucose; beta-D-Glc-(1->4)-alpha-D-Glc-(1->2)-alpha-D-Glc

> <IUPAC_NAME>
beta-D-glucopyranosyl-(1->4)-alpha-D-glucopyranosyl-(1->2)-alpha-D-glucopyranose

> <FORMULA>
C18H32O16

> <MASS>
504.43710

> <MONOISOTOPIC_MASS>
504.16903

> <CHARGE>
0

> <SMILES>
OC[C@H]1O[C@H](O)[C@H](O[C@H]2O[C@H](CO)[C@@H](O[C@@H]3O[C@H](CO)[C@@H](O)[C@H](O)[C@H]3O)[C@H](O)[C@H]2O)[C@@H](O)[C@@H]1O

> <INCHI>
InChI=1S/C18H32O16/c19-1-4-8(23)10(25)15(16(29)30-4)34-18-13(28)11(26)14(6(3-21)32-18)33-17-12(27)9(24)7(22)5(2-20)31-17/h4-29H,1-3H2/t4-,5-,6-,7-,8-,9+,10+,11-,12-,13-,14-,15-,16+,17+,18-/m1/s1

> <INCHIKEY>
OJRWEYDAILQTKA-QNHQVNOCSA-N

> <PUBMED_CITATION>
23795894; 27091615

$$$$

Marvin  10251009462D          

 24 27  0  0  1  0            999 V2000
   11.1150   -4.7233    0.0000 C   0  0  0  0  0  0  0  0  0  0  0  0
    9.6159   -5.7059    0.0000 C   0  0  0  0  0  0  0  0  0  0  0  0
   11.1150   -3.3884    0.0000 C   0  0  0  0  0  0  0  0  0  0  0  0
    9.6159   -3.2309    0.0000 C   0  0  0  0  0  0  0  0  0  0  0  0
   11.5999   -4.0559    0.0000 C   0  0  2  0  0  0  0  0  0  0  0  0
    8.1869   -4.8809    0.0000 C   0  0  0  0  0  0  0  0  0  0  0  0
    8.9014   -3.6434    0.0000 C   0  0  0  0  0  0  0  0  0  0  0  0
    8.9014   -6.1184    0.0000 C   0  0  0  0  0  0  0  0  0  0  0  0
   11.3698   -2.6039    0.0000 O   0  0  0  0  0  0  0  0  0  0  0  0
    8.1869   -5.7059    0.0000 C   0  0  0  0  0  0  0  0  0  0  0  0
    7.4725   -4.4684    0.0000 C   0  0  0  0  0  0  0  0  0  0  0  0
    7.4725   -6.1184    0.0000 C   0  0  0  0  0  0  0  0  0  0  0  0
    6.7581   -4.8809    0.0000 C   0  0  0  0  0  0  0  0  0  0  0  0
    6.7581   -5.7059    0.0000 C   0  0  0  0  0  0  0  0  0  0  0  0
    6.0436   -6.1184    0.0000 O   0  0  0  0  0  0  0  0  0  0  0  0
    9.6159   -4.8809    0.0000 C   0  0  2  0  0  0  0  0  0  0  0  0
    9.6159   -4.0559    0.0000 H   0  0  0  0  0  0  0  0  0  0  0  0
    8.9014   -4.4684    0.0000 C   0  0  1  0  0  0  0  0  0  0  0  0
    8.9014   -5.2934    0.0000 H   0  0  0  0  0  0  0  0  0  0  0  0
   10.3303   -3.6434    0.0000 C   0  0  2  0  0  0  0  0  0  0  0  0
   10.3303   -2.8185    0.0000 C   0  0  0  0  0  0  0  0  0  0  0  0
   10.3303   -4.4684    0.0000 C   0  0  1  0  0  0  0  0  0  0  0  0
   10.3303   -5.2934    0.0000 H   0  0  0  0  0  0  0  0  0  0  0  0
   12.4249   -4.0559    0.0000 O   0  0  0  0  0  0  0  0  0  0  0  0
 22 16  1  0  0  0  0
 22 20  1  0  0  0  0
 22  1  1  0  0  0  0
 16 18  1  0  0  0  0
 16  2  1  0  0  0  0
 20  3  1  0  0  0  0
 20  4  1  0  0  0  0
  5  1  1  0  0  0  0
 18  6  1  0  0  0  0
 18  7  1  0  0  0  0
  2  8  1  0  0  0  0
  3  9  2  0  0  0  0
  6 10  2  0  0  0  0
  6 11  1  0  0  0  0
 10 12  1  0  0  0  0
 11 13  2  0  0  0  0
 12 14  2  0  0  0  0
 14 15  1  0  0  0  0
  3  5  1  0  0  0  0
  4  7  1  0  0  0  0
  8 10  1  0  0  0  0
 13 14  1  0  0  0  0
 16 17  1  1  0  0  0
 18 19  1  6  0  0  0
 20 21  1  1  0  0  0
 22 23  1  6  0  0  0
  5 24  1  6  0  0  0
M  END
> <ID>
CHEBI:776

> <NAME>
16alpha-hydroxyestrone

> <DEFINITION>
The 16α-hydroxy derivative of estrone; a minor estrogen metabolite.

> <STAR>
3

> <SECONDARY_ID>
CHEBI:60497

> <SYNONYM>
estra-1,3,5(10)-triene-3,16alpha-diol-17-one; 3,16alpha-Dihydroxyestra-1,3,5(10)-trien-17-one; 3,16alpha-dihydroxy-1,3,5(10)-estratrien-17-one; 16alpha-Hydroxyestrone; 16-alpha-hydroxyestrone; 16 alpha OHE

> <IUPAC_NAME>
3,16alpha-dihydroxyestra-1,3,5(10)-trien-17-one

> <FORMULA>
C18H22O3

> <MASS>
286.36550

> <MONOISOTOPIC_MASS>
286.15689

> <CHARGE>
0

> <SMILES>
[H][C@]12CC[C@]3(C)C(=O)[C@H](O)C[C@@]3([H])[C@]1([H])CCc1cc(O)ccc21

> <INCHI>
InChI=1S/C18H22O3/c1-18-7-6-13-12-5-3-11(19)8-10(12)2-4-14(13)15(18)9-16(20)17(18)21/h3,5,8,13-16,19-20H,2,4,6-7,9H2,1H3/t13-,14-,15+,16-,18+/m1/s1

> <INCHIKEY>
WPOCIZJTELRQMF-QFXBJFAPSA-N

> <BEILSTEIN_REGISTRY_NUMBER>
3214335

> <CAS_REGISTRY_NUMBER>
566-76-7

> <CHEMIDPLUS>
566-76-7

> <KEGG_COMPOUND_ACCESSION>
C05300

> <LIPID_MAPS_INSTANCE_ACCESSION>
LMST02010034

> <PUBMED_CITATION>
29713726; 3621671

$$$$

Mrv0541 04111412272D          

 31 34  0  0  0  0            999 V2000
    6.5477  -12.8260    0.0000 C   0  0  0  0  0  0  0  0  0  0  0  0
    6.5477  -11.3971    0.0000 C   0  0  0  0  0  0  0  0  0  0  0  0
    6.1352  -12.1116    0.0000 C   0  0  1  0  0  0  0  0  0  0  0  0
    5.3102  -12.1116    0.0000 O   0  0  0  0  0  0  0  0  0  0  0  0
    7.3726  -11.2110    0.0000 C   0  0  2  0  0  0  0  0  0  0  0  0
    8.8456  -11.5547    0.0000 C   0  0  0  0  0  0  0  0  0  0  0  0
    8.8456  -12.7025    0.0000 C   0  0  0  0  0  0  0  0  0  0  0  0
    7.3726  -13.0121    0.0000 C   0  0  1  0  0  0  0  0  0  0  0  0
    7.7851  -12.1116    0.0000 N   0  3  2  0  0  0  0  0  0  0  0  0
    6.9394  -12.1116    0.0000 C   0  0  0  0  0  0  0  0  0  0  0  0
    4.6294  -12.8292    0.0000 P   0  0  0  0  0  0  0  0  0  0  0  0
    4.6294  -13.6341    0.0000 O   0  0  0  0  0  0  0  0  0  0  0  0
    3.5392  -12.8292    0.0000 O   0  0  0  0  0  0  0  0  0  0  0  0
    4.3037  -12.0712    0.0000 C   0  0  0  0  0  0  0  0  0  0  0  0
    3.4844  -11.9743    0.0000 C   0  0  0  0  0  0  0  0  0  0  0  0
    4.7973  -11.4101    0.0000 C   0  0  0  0  0  0  0  0  0  0  0  0
    3.1587  -11.2163    0.0000 C   0  0  0  0  0  0  0  0  0  0  0  0
    4.4715  -10.6521    0.0000 C   0  0  0  0  0  0  0  0  0  0  0  0
    3.6523  -10.5552    0.0000 C   0  0  0  0  0  0  0  0  0  0  0  0
    3.1267  -13.5437    0.0000 C   0  0  0  0  0  0  0  0  0  0  0  0
    3.5392  -14.2581    0.0000 C   0  0  0  0  0  0  0  0  0  0  0  0
    2.3016  -13.5437    0.0000 C   0  0  0  0  0  0  0  0  0  0  0  0
    3.1266  -14.9726    0.0000 C   0  0  0  0  0  0  0  0  0  0  0  0
    1.8891  -14.2581    0.0000 C   0  0  0  0  0  0  0  0  0  0  0  0
    2.3016  -14.9726    0.0000 C   0  0  0  0  0  0  0  0  0  0  0  0
    1.8891  -15.6871    0.0000 N   0  3  0  0  0  0  0  0  0  0  0  0
    1.0641  -15.6871    0.0000 O   0  5  0  0  0  0  0  0  0  0  0  0
    2.3016  -16.4016    0.0000 O   0  0  0  0  0  0  0  0  0  0  0  0
    7.3778  -10.4073    0.0000 H   0  0  0  0  0  0  0  0  0  0  0  0
    7.4083  -13.7392    0.0000 H   0  0  0  0  0  0  0  0  0  0  0  0
    8.6005  -12.0885    0.0000 H   0  0  0  0  0  0  0  0  0  0  0  0
  3  1  1  0  0  0  0
  3  2  1  0  0  0  0
  1  8  1  0  0  0  0
  8  9  1  0  0  0  0
  5  9  1  0  0  0  0
  5  2  1  0  0  0  0
  3  4  1  6  0  0  0
  5  6  1  0  0  0  0
  8  7  1  0  0  0  0
  7  6  1  0  0  0  0
  9 10  1  1  0  0  0
  4 11  1  0  0  0  0
 11 12  2  0  0  0  0
 11 13  1  0  0  0  0
 15 14  1  0  0  0  0
 16 14  2  0  0  0  0
 17 15  2  0  0  0  0
 18 16  1  0  0  0  0
 19 17  1  0  0  0  0
 19 18  2  0  0  0  0
 11 14  1  0  0  0  0
 21 20  1  0  0  0  0
 22 20  2  0  0  0  0
 23 21  2  0  0  0  0
 24 22  1  0  0  0  0
 25 23  1  0  0  0  0
 25 24  2  0  0  0  0
 13 20  1  0  0  0  0
 27 26  1  0  0  0  0
 28 26  2  0  0  0  0
 25 26  1  0  0  0  0
  5 29  1  1  0  0  0
  8 30  1  1  0  0  0
  9 31  1  1  0  0  0
M  CHG  3   9   1  26   1  27  -1
M  END
> <ID>
CHEBI:78219

> <NAME>
8-methyl-8-azoniabicyclo[3.2.1]octyl 4-nitrophenyl phenylphosphonate

> <DEFINITION>
An organic phosphonate that is phenylphosphonic acid diesterified with tropinium and 4-nitrophenol.

> <STAR>
3

> <SYNONYM>
p-nitrophenyl 8-methyl-8-azoniabicyclo[3.2.1]octyl phenylphosphonate; (3-endo)-8-methyl-8-azoniabicyclo[3.2.1]oct-3-yl 4-nitrophenyl phenylphosphonate

> <IUPAC_NAME>
(3-endo,8-syn)-8-methyl-3-{[(4-nitrophenoxy)(phenyl)phosphoryl]oxy}-8-azoniabicyclo[3.2.1]octane

> <FORMULA>
C20H24N2O5P

> <MASS>
403.38820

> <MONOISOTOPIC_MASS>
403.14174

> <CHARGE>
1

> <SMILES>
C[N@@H+]1[C@H]2CC[C@@H]1C[C@@H](C2)OP(=O)(Oc1ccc(cc1)[N+]([O-])=O)c1ccccc1

> <INCHI>
InChI=1S/C20H23N2O5P/c1-21-16-7-8-17(21)14-19(13-16)27-28(25,20-5-3-2-4-6-20)26-18-11-9-15(10-12-18)22(23)24/h2-6,9-12,16-17,19H,7-8,13-14H2,1H3/p+1/t16-,17+,19+,28?

> <INCHIKEY>
VZXIPESVYBSJJR-SQLBYQSASA-O

> <PUBMED_CITATION>
24598740

$$$$

Mrv0541 04161412392D          

 47 50  0  0  0  0            999 V2000
   12.6711  -11.1019    0.0000 O   0  0  0  0  0  0  0  0  0  0  0  0
   13.3856   -9.0394    0.0000 C   0  0  1  0  0  0  0  0  0  0  0  0
   13.3856   -9.8644    0.0000 C   0  0  1  0  0  0  0  0  0  0  0  0
   12.6711   -8.6269    0.0000 O   0  0  0  0  0  0  0  0  0  0  0  0
   12.6711  -10.2769    0.0000 C   0  0  2  0  0  0  0  0  0  0  0  0
   11.9566   -9.0394    0.0000 C   0  0  1  0  0  0  0  0  0  0  0  0
   11.9566   -9.8644    0.0000 C   0  0  1  0  0  0  0  0  0  0  0  0
   14.1001   -8.6269    0.0000 O   0  0  0  0  0  0  0  0  0  0  0  0
   14.1001  -10.2769    0.0000 N   0  0  0  0  0  0  0  0  0  0  0  0
   11.2421  -10.2769    0.0000 O   0  0  0  0  0  0  0  0  0  0  0  0
   11.2421   -8.6269    0.0000 C   0  0  0  0  0  0  0  0  0  0  0  0
   14.8145   -9.8644    0.0000 C   0  0  0  0  0  0  0  0  0  0  0  0
   15.5290  -10.2769    0.0000 C   0  0  0  0  0  0  0  0  0  0  0  0
   14.8145   -9.0394    0.0000 O   0  0  0  0  0  0  0  0  0  0  0  0
   12.6711  -11.9269    0.0000 C   0  0  1  0  0  0  0  0  0  0  0  0
   13.3855  -12.3394    0.0000 C   0  0  1  0  0  0  0  0  0  0  0  0
   11.9566  -12.3394    0.0000 O   0  0  0  0  0  0  0  0  0  0  0  0
   13.3855  -13.1644    0.0000 C   0  0  2  0  0  0  0  0  0  0  0  0
   11.9565  -13.1644    0.0000 C   0  0  1  0  0  0  0  0  0  0  0  0
   12.6710  -13.5769    0.0000 C   0  0  2  0  0  0  0  0  0  0  0  0
   14.1000  -11.9269    0.0000 O   0  0  0  0  0  0  0  0  0  0  0  0
   14.0999  -13.5770    0.0000 O   0  0  0  0  0  0  0  0  0  0  0  0
   12.6710  -14.4019    0.0000 O   0  0  0  0  0  0  0  0  0  0  0  0
   11.2421  -13.5769    0.0000 C   0  0  0  0  0  0  0  0  0  0  0  0
   11.2421  -14.4019    0.0000 O   0  0  0  0  0  0  0  0  0  0  0  0
    9.8133  -10.2769    0.0000 O   0  0  0  0  0  0  0  0  0  0  0  0
    9.0988  -10.6894    0.0000 C   0  0  2  0  0  0  0  0  0  0  0  0
   10.5278  -10.6894    0.0000 C   0  0  2  0  0  0  0  0  0  0  0  0
   10.5278  -11.5143    0.0000 C   0  0  2  0  0  0  0  0  0  0  0  0
    9.8133  -11.9268    0.0000 C   0  0  1  0  0  0  0  0  0  0  0  0
    9.0988  -11.5143    0.0000 C   0  0  2  0  0  0  0  0  0  0  0  0
   11.2422  -11.9268    0.0000 O   0  0  0  0  0  0  0  0  0  0  0  0
    9.8133  -12.7518    0.0000 O   0  0  0  0  0  0  0  0  0  0  0  0
    8.3844  -11.9268    0.0000 O   0  0  0  0  0  0  0  0  0  0  0  0
    8.3843  -10.2769    0.0000 C   0  0  0  0  0  0  0  0  0  0  0  0
   10.5277   -9.0394    0.0000 O   0  0  0  0  0  0  0  0  0  0  0  0
   14.8146   -6.5644    0.0000 C   0  0  0  0  0  0  0  0  0  0  0  0
   14.8146   -7.3894    0.0000 C   0  0  1  0  0  0  0  0  0  0  0  0
   14.1001   -6.1519    0.0000 O   0  0  0  0  0  0  0  0  0  0  0  0
   14.1001   -7.8019    0.0000 C   0  0  2  0  0  0  0  0  0  0  0  0
   13.3856   -6.5644    0.0000 C   0  0  1  0  0  0  0  0  0  0  0  0
   13.3856   -7.3894    0.0000 C   0  0  2  0  0  0  0  0  0  0  0  0
   15.5290   -6.1519    0.0000 O   0  0  0  0  0  0  0  0  0  0  0  0
   15.5290   -7.8019    0.0000 O   0  0  0  0  0  0  0  0  0  0  0  0
   12.6711   -7.8019    0.0000 O   0  0  0  0  0  0  0  0  0  0  0  0
   12.6711   -6.1519    0.0000 C   0  0  0  0  0  0  0  0  0  0  0  0
   11.9567   -6.5644    0.0000 O   0  0  0  0  0  0  0  0  0  0  0  0
  2  3  1  0  0  0  0
  2  4  1  0  0  0  0
  3  5  1  0  0  0  0
  4  6  1  0  0  0  0
  5  7  1  0  0  0  0
  6  7  1  0  0  0  0
  2  8  1  1  0  0  0
  3  9  1  6  0  0  0
  5  1  1  1  0  0  0
  7 10  1  6  0  0  0
  6 11  1  1  0  0  0
  9 12  1  0  0  0  0
 12 13  1  0  0  0  0
 12 14  2  0  0  0  0
 15 16  1  0  0  0  0
 15 17  1  0  0  0  0
 16 18  1  0  0  0  0
 17 19  1  0  0  0  0
 18 20  1  0  0  0  0
 19 20  1  0  0  0  0
 15  1  1  1  0  0  0
 16 21  1  6  0  0  0
 18 22  1  1  0  0  0
 20 23  1  1  0  0  0
 19 24  1  1  0  0  0
 25 24  1  0  0  0  0
 27 26  1  0  0  0  0
 28 26  1  0  0  0  0
 28 10  1  1  0  0  0
 28 29  1  0  0  0  0
 29 32  1  1  0  0  0
 29 30  1  0  0  0  0
 30 33  1  6  0  0  0
 30 31  1  0  0  0  0
 31 27  1  0  0  0  0
 31 34  1  6  0  0  0
 27 35  1  6  0  0  0
 11 36  1  0  0  0  0
 37 38  1  0  0  0  0
 37 39  1  0  0  0  0
 38 40  1  0  0  0  0
 39 41  1  0  0  0  0
 40 42  1  0  0  0  0
 41 42  1  0  0  0  0
 37 43  1  0  0  0  0
 38 44  1  6  0  0  0
 40  8  1  1  0  0  0
 42 45  1  1  0  0  0
 41 46  1  1  0  0  0
 47 46  1  0  0  0  0
M  END
> <ID>
CHEBI:78271

> <NAME>
alpha-L-Fucp-(1->4)-[beta-D-Galp-(1->3)]-beta-D-GlcpNAc-(1->3)-D-Galp

> <DEFINITION>
A branched amino tetrasaccharide consisting of D-galactose at the reducing end with an α-L-fucosyl-(1→4)-[β-D-galactosyl-(1→3)]-N-acetyl-β-D-glucosaminyl moiety attached at the 3-position.

> <STAR>
3

> <SYNONYM>
Lewis(a) tetrasaccharide; Lewis(a) tetraose; Le(a) tetrasaccharide; Le(a) tetraose; beta-D-galactosyl-(1->3)-[alpha-L-fucosyl-(1->4)]-N-acetyl-beta-D-glucosaminyl-(1->3)-D-galactose; alpha-L-fucosyl-(1->4)-[beta-D-galactosyl-(1->3)]-N-acetyl-beta-D-glucosaminyl-(1->3)-D-galactose; alpha-L-Fuc-(1->4)-[beta-D-Gal-(1->3)]-beta-D-GlcNAc-(1->3)-D-Gal

> <IUPAC_NAME>
alpha-L-fucopyranosyl-(1->4)-[beta-D-galactopyranosyl-(1->3)]-2-acetamido-2-deoxy-beta-D-glucopyranosyl-(1->3)-D-galactopyranose; 6-deoxy-alpha-L-galactopyranosyl-(1->4)-[beta-D-galactopyranosyl-(1->3)]-2-acetamido-2-deoxy-beta-D-glucopyranosyl-(1->3)-D-galactopyranose

> <FORMULA>
C26H45NO20

> <MASS>
691.63020

> <MONOISOTOPIC_MASS>
691.25349

> <CHARGE>
0

> <SMILES>
C[C@@H]1O[C@@H](O[C@@H]2[C@@H](CO)O[C@@H](O[C@@H]3[C@@H](O)C(O)O[C@H](CO)[C@@H]3O)[C@H](NC(C)=O)[C@H]2O[C@@H]2O[C@H](CO)[C@H](O)[C@H](O)[C@H]2O)[C@@H](O)[C@H](O)[C@@H]1O

> <INCHI>
InChI=1S/C26H45NO20/c1-6-12(32)15(35)17(37)25(41-6)45-20-10(5-30)44-24(47-22-14(34)9(4-29)42-23(40)19(22)39)11(27-7(2)31)21(20)46-26-18(38)16(36)13(33)8(3-28)43-26/h6,8-26,28-30,32-40H,3-5H2,1-2H3,(H,27,31)/t6-,8+,9+,10+,11+,12+,13-,14-,15+,16-,17-,18+,19+,20+,21+,22-,23?,24-,25-,26-/m0/s1

> <INCHIKEY>
CNKRQAPRNDWIMW-LVDSFCAASA-N

> <PUBMED_CITATION>
394439

$$$$

Mrv0541 08051409542D          
 
 25 29  0  0  1  0            999 V2000
   14.2720  -10.5607    0.0000 C   0  0  0  0  0  0  0  0  0  0  0  0
   14.9733  -10.1483    0.0000 C   0  0  0  0  0  0  0  0  0  0  0  0
   13.4882  -10.2720    0.0000 C   0  0  1  0  0  0  0  0  0  0  0  0
   14.2720  -11.3857    0.0000 C   0  0  0  0  0  0  0  0  0  0  0  0
   15.6745  -10.5607    0.0000 C   0  0  0  0  0  0  0  0  0  0  0  0
   14.9733   -9.3232    0.0000 O   0  0  0  0  0  0  0  0  0  0  0  0
   12.9933  -10.9733    0.0000 C   0  0  1  0  0  0  0  0  0  0  0  0
   12.9933   -9.6120    0.0000 C   0  0  0  0  0  0  0  0  0  0  0  0
   14.9733  -11.7983    0.0000 C   0  0  0  0  0  0  0  0  0  0  0  0
   13.4470  -11.6333    0.0000 O   0  0  0  0  0  0  0  0  0  0  0  0
   16.3758  -10.1483    0.0000 C   0  0  0  0  0  0  0  0  0  0  0  0
   15.6745  -11.3857    0.0000 C   0  0  0  0  0  0  0  0  0  0  0  0
   15.6745   -8.9107    0.0000 C   0  0  0  0  0  0  0  0  0  0  0  0
   12.2095  -10.6845    0.0000 O   0  0  0  0  0  0  0  0  0  0  0  0
   12.2095   -9.8595    0.0000 C   0  0  0  0  0  0  0  0  0  0  0  0
   16.3758   -9.3232    0.0000 C   0  0  0  0  0  0  0  0  0  0  0  0
   16.3758  -11.7983    0.0000 O   0  0  0  0  0  0  0  0  0  0  0  0
   15.6745   -8.0857    0.0000 O   0  0  0  0  0  0  0  0  0  0  0  0
   17.1183  -11.3857    0.0000 C   0  0  0  0  0  0  0  0  0  0  0  0
   13.9832   -9.6120    0.0000 O   0  0  0  0  0  0  0  0  0  0  0  0
   12.4157  -11.5508    0.0000 H   0  0  0  0  0  0  0  0  0  0  0  0
   17.1604  -10.4032    0.0000 C   0  0  0  0  0  0  0  0  0  0  0  0
   17.6454   -9.7357    0.0000 C   0  0  0  0  0  0  0  0  0  0  0  0
   17.1604   -9.0683    0.0000 C   0  0  0  0  0  0  0  0  0  0  0  0
   17.4131   -8.2907    0.0000 O   0  0  0  0  0  0  0  0  0  0  0  0
  1  2  1  0  0  0  0
  1  3  1  0  0  0  0
  1  4  2  0  0  0  0
  2  5  2  0  0  0  0
  2  6  1  0  0  0  0
  3  7  1  0  0  0  0
  3  8  1  0  0  0  0
  4  9  1  0  0  0  0
  4 10  1  0  0  0  0
  5 11  1  0  0  0  0
  5 12  1  0  0  0  0
  6 13  1  0  0  0  0
  7 14  1  0  0  0  0
  8 15  2  0  0  0  0
 11 16  2  0  0  0  0
 12 17  1  0  0  0  0
 13 18  2  0  0  0  0
 17 19  1  0  0  0  0
  7 10  1  0  0  0  0
  9 12  2  0  0  0  0
 13 16  1  0  0  0  0
 14 15  1  0  0  0  0
  3 20  1  6  0  0  0
  7 21  1  6  0  0  0
 11 22  1  0  0  0  0
 22 23  1  0  0  0  0
 23 24  1  0  0  0  0
 16 24  1  0  0  0  0
 24 25  2  0  0  0  0
M  END
> <ID>
CHEBI:78576

> <NAME>
aflatoxin M1

> <DEFINITION>
A member of the class of aflatoxins that is aflatoxin B1 in which the hydrogen at position 9a is replaced by a hydroxy group.

> <STAR>
3

> <SYNONYM>
AFM1; 4-Hydroxyaflatoxin B1

> <IUPAC_NAME>
(6aR,9aR)-9a-hydroxy-4-methoxy-2,3,6a,9a-tetrahydrocyclopenta[c]furo[3',2':4,5]furo[2,3-h]chromene-1,11-dione

> <FORMULA>
C17H12O7

> <MASS>
328.27300

> <MONOISOTOPIC_MASS>
328.05830

> <CHARGE>
0

> <SMILES>
COc1cc2O[C@H]3OC=C[C@@]3(O)c2c2oc(=O)c3C(=O)CCc3c12

> <INCHI>
InChI=1S/C17H12O7/c1-21-9-6-10-13(17(20)4-5-22-16(17)23-10)14-12(9)7-2-3-8(18)11(7)15(19)24-14/h4-6,16,20H,2-3H2,1H3/t16-,17-/m1/s1

> <INCHIKEY>
MJBWDEQAUQTVKK-IAGOWNOFSA-N

> <CAS_REGISTRY_NUMBER>
6795-23-9

> <REAXYS_REGISTRY_NUMBER>
1630643

> <CHEMIDPLUS>
6795-23-9

> <HMDB_ACCESSION>
HMDB0030479

> <KEGG_COMPOUND_ACCESSION>
C16756

> <KNAPSACK_ACCESSION>
C00023620

> <PUBMED_CITATION>
23439481; 23774832; 23984192; 24176338; 24486626; 24490923; 24691373; 24731347; 24731644; 24738739; 24779971; 24779973; 24779974; 24846792; 24856405; 24875350; 24984866; 25029401; 25029404; 25033991

$$$$

Mrv0541 05221415112D          

 43 45  0  0  0  0            999 V2000
   11.3155  -13.4316    0.0000 O   0  0  0  0  0  0  0  0  0  0  0  0
   13.4589  -12.1941    0.0000 C   0  0  2  0  0  0  0  0  0  0  0  0
   13.4589  -13.0191    0.0000 C   0  0  2  0  0  0  0  0  0  0  0  0
   12.7444  -11.7816    0.0000 O   0  0  0  0  0  0  0  0  0  0  0  0
   12.7444  -13.4316    0.0000 C   0  0  2  0  0  0  0  0  0  0  0  0
   12.0300  -12.1941    0.0000 C   0  0  1  0  0  0  0  0  0  0  0  0
   12.0300  -13.0191    0.0000 C   0  0  1  0  0  0  0  0  0  0  0  0
   14.1733  -11.7816    0.0000 O   0  0  0  0  0  0  0  0  0  0  0  0
   14.1733  -13.4316    0.0000 O   0  0  0  0  0  0  0  0  0  0  0  0
   12.7444  -14.2565    0.0000 O   0  0  0  0  0  0  0  0  0  0  0  0
   11.3155  -11.7816    0.0000 C   0  0  1  0  0  0  0  0  0  0  0  0
   11.3155  -10.8912    0.0000 O   0  0  0  0  0  0  0  0  0  0  0  0
   10.5443  -12.2269    0.0000 C   0  0  0  0  0  0  0  0  0  0  0  0
    9.7732  -11.7816    0.0000 O   0  0  0  0  0  0  0  0  0  0  0  0
   12.0300  -11.3691    0.0000 H   0  0  0  0  0  0  0  0  0  0  0  0
    9.8866  -15.9064    0.0000 O   0  0  0  0  0  0  0  0  0  0  0  0
   12.0301  -14.6689    0.0000 C   0  0  2  0  0  0  0  0  0  0  0  0
   12.0301  -15.4939    0.0000 C   0  0  2  0  0  0  0  0  0  0  0  0
   11.3156  -14.2565    0.0000 O   0  0  0  0  0  0  0  0  0  0  0  0
   11.3156  -15.9064    0.0000 C   0  0  2  0  0  0  0  0  0  0  0  0
   10.6011  -14.6689    0.0000 C   0  0  1  0  0  0  0  0  0  0  0  0
   10.6011  -15.4939    0.0000 C   0  0  1  0  0  0  0  0  0  0  0  0
   12.7444  -15.9064    0.0000 O   0  0  0  0  0  0  0  0  0  0  0  0
   11.3156  -16.7313    0.0000 O   0  0  0  0  0  0  0  0  0  0  0  0
    9.8866  -14.2565    0.0000 C   0  0  1  0  0  0  0  0  0  0  0  0
    9.8866  -13.3660    0.0000 O   0  0  0  0  0  0  0  0  0  0  0  0
    9.1155  -14.7017    0.0000 C   0  0  0  0  0  0  0  0  0  0  0  0
    8.3444  -14.2565    0.0000 O   0  0  0  0  0  0  0  0  0  0  0  0
   10.6011  -13.8440    0.0000 H   0  0  0  0  0  0  0  0  0  0  0  0
    5.4866  -15.9064    0.0000 O   0  0  0  0  0  0  0  0  0  0  0  0
    7.6300  -14.6689    0.0000 C   0  0  2  0  0  0  0  0  0  0  0  0
    7.6300  -15.4939    0.0000 C   0  0  2  0  0  0  0  0  0  0  0  0
    6.9155  -14.2565    0.0000 O   0  0  0  0  0  0  0  0  0  0  0  0
    6.9155  -15.9064    0.0000 C   0  0  2  0  0  0  0  0  0  0  0  0
    6.2010  -14.6689    0.0000 C   0  0  1  0  0  0  0  0  0  0  0  0
    6.2010  -15.4939    0.0000 C   0  0  1  0  0  0  0  0  0  0  0  0
    8.3444  -15.9064    0.0000 O   0  0  0  0  0  0  0  0  0  0  0  0
    6.9155  -16.7313    0.0000 O   0  0  0  0  0  0  0  0  0  0  0  0
    5.4866  -14.2565    0.0000 C   0  0  1  0  0  0  0  0  0  0  0  0
    5.4866  -13.3660    0.0000 O   0  0  0  0  0  0  0  0  0  0  0  0
    4.7154  -14.7017    0.0000 C   0  0  0  0  0  0  0  0  0  0  0  0
    3.9443  -14.2565    0.0000 O   0  0  0  0  0  0  0  0  0  0  0  0
    6.2010  -13.8440    0.0000 H   0  0  0  0  0  0  0  0  0  0  0  0
  2  3  1  0  0  0  0
  2  4  1  0  0  0  0
  3  5  1  0  0  0  0
  6  4  1  0  0  0  0
  5  7  1  0  0  0  0
  6  7  1  0  0  0  0
  2  8  1  6  0  0  0
  3  9  1  1  0  0  0
  5 10  1  1  0  0  0
  7  1  1  6  0  0  0
  6 11  1  0  0  0  0
 11 12  1  6  0  0  0
 13 11  1  0  0  0  0
 14 13  1  0  0  0  0
  6 15  1  6  0  0  0
 17 18  1  0  0  0  0
 17 19  1  0  0  0  0
 18 20  1  0  0  0  0
 21 19  1  0  0  0  0
 20 22  1  0  0  0  0
 21 22  1  0  0  0  0
 17 10  1  6  0  0  0
 18 23  1  1  0  0  0
 20 24  1  1  0  0  0
 22 16  1  6  0  0  0
 21 25  1  0  0  0  0
 25 26  1  6  0  0  0
 27 25  1  0  0  0  0
 28 27  1  0  0  0  0
 21 29  1  6  0  0  0
 31 32  1  0  0  0  0
 31 33  1  0  0  0  0
 32 34  1  0  0  0  0
 35 33  1  0  0  0  0
 34 36  1  0  0  0  0
 35 36  1  0  0  0  0
 31 28  1  6  0  0  0
 32 37  1  1  0  0  0
 34 38  1  1  0  0  0
 36 30  1  6  0  0  0
 35 39  1  0  0  0  0
 39 40  1  6  0  0  0
 41 39  1  0  0  0  0
 42 41  1  0  0  0  0
 35 43  1  6  0  0  0
M  END
> <ID>
CHEBI:78615

> <NAME>
L-alpha-D-Hepp-(1->7)-L-alpha-D-Hepp-(1->3)-L-alpha-D-Hepp

> <DEFINITION>
A linear trisaccharide consisting of three L-glycero-α-D-manno-heptose residues joined sequentially by (1→7) and (1→3) linkages.

> <STAR>
3

> <SYNONYM>
L-glycero-alpha-D-manno-heptosyl-(1->7)-L-glycero-alpha-D-manno-heptosyl-(1->3)-L-glycero-alpha-D-manno-heptose; L-alpha-D-Hep-(1->7)-L-alpha-D-Hep-(1->3)-L-alpha-D-Hep

> <IUPAC_NAME>
L-glycero-alpha-D-manno-heptopyranosyl-(1->7)-L-glycero-alpha-D-manno-heptopyranosyl-(1->3)-L-glycero-alpha-D-manno-heptopyranose

> <FORMULA>
C21H38O19

> <MASS>
594.51500

> <MONOISOTOPIC_MASS>
594.20073

> <CHARGE>
0

> <SMILES>
OC[C@H](O)[C@H]1O[C@H](O)[C@@H](O)[C@@H](O[C@H]2O[C@H]([C@@H](O)CO[C@H]3O[C@H]([C@@H](O)CO)[C@@H](O)[C@H](O)[C@@H]3O)[C@@H](O)[C@H](O)[C@@H]2O)[C@@H]1O

> <INCHI>
InChI=1S/C21H38O19/c22-1-4(24)15-9(29)7(27)11(31)20(38-15)36-3-6(26)17-10(30)8(28)12(32)21(39-17)40-18-13(33)16(5(25)2-23)37-19(35)14(18)34/h4-35H,1-3H2/t4-,5-,6-,7-,8-,9-,10-,11-,12-,13+,14-,15+,16+,17+,18-,19-,20-,21+/m0/s1

> <INCHIKEY>
OPOSGJVGUXTZTG-TYJNHJHASA-N

> <REAXYS_REGISTRY_NUMBER>
4730831

> <PUBMED_CITATION>
24479563

$$$$

Mrv0541 06181417512D          

 37 39  0  0  1  0            999 V2000
    7.2227   -2.7633    0.0000 C   0  0  2  0  0  0  0  0  0  0  0  0
    7.2227   -3.5883    0.0000 C   0  0  2  0  0  0  0  0  0  0  0  0
    6.5081   -2.3508    0.0000 O   0  0  0  0  0  0  0  0  0  0  0  0
    6.5081   -4.0008    0.0000 C   0  0  2  0  0  0  0  0  0  0  0  0
    5.7937   -2.7633    0.0000 C   0  0  1  0  0  0  0  0  0  0  0  0
    5.7937   -3.5883    0.0000 C   0  0  1  0  0  0  0  0  0  0  0  0
    7.9371   -2.3508    0.0000 O   0  0  0  0  0  0  0  0  0  0  0  0
    7.9371   -4.0008    0.0000 O   0  0  0  0  0  0  0  0  0  0  0  0
    6.5081   -4.8258    0.0000 O   0  0  0  0  0  0  0  0  0  0  0  0
    5.0792   -4.0008    0.0000 O   0  0  0  0  0  0  0  0  0  0  0  0
    5.0792   -2.3508    0.0000 C   0  0  0  0  0  0  0  0  0  0  0  0
    4.3647   -2.7633    0.0000 O   0  0  0  0  0  0  0  0  0  0  0  0
    7.9371   -4.8258    0.0000 C   0  0  1  0  0  0  0  0  0  0  0  0
    8.6516   -5.2383    0.0000 C   0  0  2  0  0  0  0  0  0  0  0  0
    7.2226   -5.2383    0.0000 O   0  0  0  0  0  0  0  0  0  0  0  0
    8.6516   -6.0633    0.0000 C   0  0  2  0  0  0  0  0  0  0  0  0
    7.2226   -6.0633    0.0000 C   0  0  1  0  0  0  0  0  0  0  0  0
    7.9371   -6.4758    0.0000 C   0  0  1  0  0  0  0  0  0  0  0  0
    9.3660   -4.8258    0.0000 O   0  0  0  0  0  0  0  0  0  0  0  0
    9.3660   -6.4759    0.0000 O   0  0  0  0  0  0  0  0  0  0  0  0
    7.9371   -7.3008    0.0000 O   0  0  0  0  0  0  0  0  0  0  0  0
    6.5081   -6.4758    0.0000 C   0  0  0  0  0  0  0  0  0  0  0  0
    6.5081   -7.3008    0.0000 O   0  0  0  0  0  0  0  0  0  0  0  0
   10.0806   -5.2383    0.0000 C   0  0  1  0  0  0  0  0  0  0  0  0
   10.7950   -4.8258    0.0000 C   0  0  2  0  0  0  0  0  0  0  0  0
   10.0806   -6.0633    0.0000 O   0  0  0  0  0  0  0  0  0  0  0  0
   11.5095   -5.2383    0.0000 C   0  0  2  0  0  0  0  0  0  0  0  0
   10.7950   -6.4758    0.0000 C   0  0  1  0  0  0  0  0  0  0  0  0
   11.5095   -6.0633    0.0000 C   0  0  1  0  0  0  0  0  0  0  0  0
   10.7950   -4.0008    0.0000 O   0  0  0  0  0  0  0  0  0  0  0  0
   12.2240   -4.8258    0.0000 O   0  0  0  0  0  0  0  0  0  0  0  0
   12.2240   -6.4758    0.0000 O   0  0  0  0  0  0  0  0  0  0  0  0
   10.7951   -7.3008    0.0000 C   0  0  0  0  0  0  0  0  0  0  0  0
   11.5096   -7.7133    0.0000 O   0  0  0  0  0  0  0  0  0  0  0  0
    8.6516   -2.7633    0.0000 C   0  0  0  0  0  0  0  0  0  0  0  0
    9.3661   -2.3508    0.0000 C   0  0  0  0  0  0  0  0  0  0  0  0
   10.0805   -2.7633    0.0000 N   0  0  0  0  0  0  0  0  0  0  0  0
  1  2  1  0  0  0  0
  1  3  1  0  0  0  0
  2  4  1  0  0  0  0
  3  5  1  0  0  0  0
  4  6  1  0  0  0  0
  5  6  1  0  0  0  0
  1  7  1  6  0  0  0
  2  8  1  1  0  0  0
  4  9  1  1  0  0  0
  6 10  1  6  0  0  0
  5 11  1  1  0  0  0
 12 11  1  0  0  0  0
 13 14  1  0  0  0  0
 13 15  1  0  0  0  0
 14 16  1  0  0  0  0
 15 17  1  0  0  0  0
 16 18  1  0  0  0  0
 17 18  1  0  0  0  0
 13  8  1  1  0  0  0
 14 19  1  1  0  0  0
 16 20  1  1  0  0  0
 18 21  1  6  0  0  0
 17 22  1  1  0  0  0
 23 22  1  0  0  0  0
 24 25  1  0  0  0  0
 24 26  1  0  0  0  0
 25 27  1  0  0  0  0
 26 28  1  0  0  0  0
 27 29  1  0  0  0  0
 28 29  1  0  0  0  0
 24 19  1  1  0  0  0
 25 30  1  1  0  0  0
 27 31  1  1  0  0  0
 29 32  1  6  0  0  0
 28 33  1  1  0  0  0
 34 33  1  0  0  0  0
  7 35  1  0  0  0  0
 35 36  1  0  0  0  0
 36 37  1  0  0  0  0
M  END
> <ID>
CHEBI:78888

> <NAME>
beta-D-Manp-(1->2)-beta-D-Manp-(1->2)-alpha-D-Manp-O[CH2]2NH2

> <DEFINITION>
A glycoside that consists of the linear trisaccharide β-D-Manp-(1→2)-β-D-Manp-(1→2)-α-D-Manp having a 2-aminoethoxy moiety at the reducing-end anomeric centre.

> <STAR>
3

> <SYNONYM>
beta-D-Man-(1->2)-beta-D-Man-(1->2)-alpha-D-Man-O[CH2]2NH2

> <IUPAC_NAME>
2-aminoethyl beta-D-mannopyranosyl-(1->2)-beta-D-mannopyranosyl-(1->2)-alpha-D-mannopyranoside

> <FORMULA>
C20H37NO16

> <MASS>
547.50490

> <MONOISOTOPIC_MASS>
547.21123

> <CHARGE>
0

> <SMILES>
NCCO[C@H]1O[C@H](CO)[C@@H](O)[C@H](O)[C@@H]1O[C@@H]1O[C@H](CO)[C@@H](O)[C@H](O)[C@@H]1O[C@@H]1O[C@H](CO)[C@@H](O)[C@H](O)[C@@H]1O

> <INCHI>
InChI=1S/C20H37NO16/c21-1-2-32-19-16(13(29)10(26)7(4-23)34-19)37-20-17(14(30)11(27)8(5-24)35-20)36-18-15(31)12(28)9(25)6(3-22)33-18/h6-20,22-31H,1-5,21H2/t6-,7-,8-,9-,10-,11-,12+,13+,14+,15+,16+,17+,18+,19+,20+/m1/s1

> <INCHIKEY>
BWBSAHNMKJGTFW-LLDPRYFUSA-N

> <PUBMED_CITATION>
24601638

$$$$

Mrv0541 06181422042D          

 37 39  0  0  1  0            999 V2000
    7.8291  -58.5855    0.0000 C   0  0  1  0  0  0  0  0  0  0  0  0
    7.8291  -59.4105    0.0000 C   0  0  2  0  0  0  0  0  0  0  0  0
    7.1145  -58.1729    0.0000 O   0  0  0  0  0  0  0  0  0  0  0  0
    7.1145  -59.8230    0.0000 C   0  0  2  0  0  0  0  0  0  0  0  0
    6.4001  -58.5855    0.0000 C   0  0  1  0  0  0  0  0  0  0  0  0
    6.4001  -59.4105    0.0000 C   0  0  1  0  0  0  0  0  0  0  0  0
    8.5435  -58.1729    0.0000 O   0  0  0  0  0  0  0  0  0  0  0  0
    8.5435  -59.8230    0.0000 O   0  0  0  0  0  0  0  0  0  0  0  0
    7.1145  -60.6480    0.0000 O   0  0  0  0  0  0  0  0  0  0  0  0
    5.6856  -59.8230    0.0000 O   0  0  0  0  0  0  0  0  0  0  0  0
    5.6856  -58.1730    0.0000 C   0  0  0  0  0  0  0  0  0  0  0  0
    4.9711  -58.5855    0.0000 O   0  0  0  0  0  0  0  0  0  0  0  0
    8.5435  -60.6480    0.0000 C   0  0  1  0  0  0  0  0  0  0  0  0
    9.2580  -61.0605    0.0000 C   0  0  2  0  0  0  0  0  0  0  0  0
    7.8290  -61.0605    0.0000 O   0  0  0  0  0  0  0  0  0  0  0  0
    9.2579  -61.8855    0.0000 C   0  0  2  0  0  0  0  0  0  0  0  0
    7.8290  -61.8855    0.0000 C   0  0  1  0  0  0  0  0  0  0  0  0
    8.5435  -62.2980    0.0000 C   0  0  1  0  0  0  0  0  0  0  0  0
    9.9725  -60.6480    0.0000 O   0  0  0  0  0  0  0  0  0  0  0  0
    9.9724  -62.2981    0.0000 O   0  0  0  0  0  0  0  0  0  0  0  0
    8.5435  -63.1231    0.0000 O   0  0  0  0  0  0  0  0  0  0  0  0
    7.1145  -62.2980    0.0000 C   0  0  0  0  0  0  0  0  0  0  0  0
    7.1145  -63.1231    0.0000 O   0  0  0  0  0  0  0  0  0  0  0  0
   10.6869  -61.0605    0.0000 C   0  0  1  0  0  0  0  0  0  0  0  0
   11.4015  -60.6480    0.0000 C   0  0  2  0  0  0  0  0  0  0  0  0
   10.6870  -61.8855    0.0000 O   0  0  0  0  0  0  0  0  0  0  0  0
   12.1159  -61.0605    0.0000 C   0  0  2  0  0  0  0  0  0  0  0  0
   11.4015  -62.2980    0.0000 C   0  0  1  0  0  0  0  0  0  0  0  0
   12.1159  -61.8855    0.0000 C   0  0  1  0  0  0  0  0  0  0  0  0
   11.4015  -59.8230    0.0000 O   0  0  0  0  0  0  0  0  0  0  0  0
   12.8304  -60.6480    0.0000 O   0  0  0  0  0  0  0  0  0  0  0  0
   12.8304  -62.2980    0.0000 O   0  0  0  0  0  0  0  0  0  0  0  0
   11.4015  -63.1231    0.0000 C   0  0  0  0  0  0  0  0  0  0  0  0
   12.1160  -63.5356    0.0000 O   0  0  0  0  0  0  0  0  0  0  0  0
    9.2580  -58.5855    0.0000 C   0  0  0  0  0  0  0  0  0  0  0  0
    9.9725  -58.1729    0.0000 C   0  0  0  0  0  0  0  0  0  0  0  0
   10.6869  -58.5854    0.0000 N   0  0  0  0  0  0  0  0  0  0  0  0
  1  2  1  0  0  0  0
  1  3  1  0  0  0  0
  2  4  1  0  0  0  0
  3  5  1  0  0  0  0
  4  6  1  0  0  0  0
  5  6  1  0  0  0  0
  1  7  1  1  0  0  0
  2  8  1  1  0  0  0
  4  9  1  1  0  0  0
  6 10  1  6  0  0  0
  5 11  1  1  0  0  0
 12 11  1  0  0  0  0
 13 14  1  0  0  0  0
 13 15  1  0  0  0  0
 14 16  1  0  0  0  0
 15 17  1  0  0  0  0
 16 18  1  0  0  0  0
 17 18  1  0  0  0  0
 13  8  1  1  0  0  0
 14 19  1  1  0  0  0
 16 20  1  1  0  0  0
 18 21  1  6  0  0  0
 17 22  1  1  0  0  0
 23 22  1  0  0  0  0
 24 25  1  0  0  0  0
 24 26  1  0  0  0  0
 25 27  1  0  0  0  0
 26 28  1  0  0  0  0
 27 29  1  0  0  0  0
 28 29  1  0  0  0  0
 24 19  1  1  0  0  0
 25 30  1  1  0  0  0
 27 31  1  1  0  0  0
 29 32  1  6  0  0  0
 28 33  1  1  0  0  0
 34 33  1  0  0  0  0
  7 35  1  0  0  0  0
 35 36  1  0  0  0  0
 36 37  1  0  0  0  0
M  END
> <ID>
CHEBI:78889

> <NAME>
beta-D-Manp-(1->2)-beta-D-Manp-(1->2)-beta-D-Manp-O[CH2]2NH2

> <DEFINITION>
A glycoside that consists of the linear trisaccharide β-D-Manp-(1→2)-β-D-Manp-(1→2)-β-D-Manp having a 2-aminoethoxy moiety at the reducing-end anomeric centre.

> <STAR>
3

> <SYNONYM>
beta-D-Man-(1->2)-beta-D-Man-(1->2)-beta-D-Man-O[CH2]2NH2

> <IUPAC_NAME>
2-aminoethyl beta-D-mannopyranosyl-(1->2)-beta-D-mannopyranosyl-(1->2)-beta-D-mannopyranoside

> <FORMULA>
C20H37NO16

> <MASS>
547.50490

> <MONOISOTOPIC_MASS>
547.21123

> <CHARGE>
0

> <SMILES>
NCCO[C@@H]1O[C@H](CO)[C@@H](O)[C@H](O)[C@@H]1O[C@@H]1O[C@H](CO)[C@@H](O)[C@H](O)[C@@H]1O[C@@H]1O[C@H](CO)[C@@H](O)[C@H](O)[C@@H]1O

> <INCHI>
InChI=1S/C20H37NO16/c21-1-2-32-19-16(13(29)10(26)7(4-23)34-19)37-20-17(14(30)11(27)8(5-24)35-20)36-18-15(31)12(28)9(25)6(3-22)33-18/h6-20,22-31H,1-5,21H2/t6-,7-,8-,9-,10-,11-,12+,13+,14+,15+,16+,17+,18+,19-,20+/m1/s1

> <INCHIKEY>
BWBSAHNMKJGTFW-ANYXEJIESA-N

> <PUBMED_CITATION>
24601638

$$$$

Ketcher 09091618022D 1   1.00000     0.00000     0

 22 26  0     1  0            999 V2000
   18.1906  -14.4664    0.0000 C   0  0  0  0  0  0  0  0  0  0  0  0
   18.1698  -13.5316    0.0000 C   0  0  0  0  0  0  0  0  0  0  0  0
   18.9761  -14.9397    0.0000 C   0  0  0  0  0  0  0  0  0  0  0  0
   17.3555  -14.9277    0.0000 C   0  0  0  0  0  0  0  0  0  0  0  0
   18.9761  -13.9891    0.0000 C   0  0  0  0  0  0  0  0  0  0  0  0
   17.3555  -13.0663    0.0000 C   0  0  0  0  0  0  0  0  0  0  0  0
   18.9801  -13.0663    0.0000 C   0  0  0  0  0  0  0  0  0  0  0  0
   19.7905  -14.4744    0.0000 C   0  0  0  0  0  0  0  0  0  0  0  0
   18.9721  -15.8743    0.0000 C   0  0  0  0  0  0  0  0  0  0  0  0
   16.4247  -13.9329    0.0000 O   0  0  0  0  0  0  0  0  0  0  0  0
   17.3513  -15.8624    0.0000 C   0  0  0  0  0  0  0  0  0  0  0  0
   20.6301  -14.0218    0.0000 C   0  0  0  0  0  0  0  0  0  0  0  0
   17.3555  -12.1237    0.0000 C   0  0  0  0  0  0  0  0  0  0  0  0
   19.7945  -13.5357    0.0000 C   0  0  0  0  0  0  0  0  0  0  0  0
   18.9801  -12.1237    0.0000 C   0  0  0  0  0  0  0  0  0  0  0  0
   20.6050  -14.9478    0.0000 N   0  0  0  0  0  0  0  0  0  0  0  0
   18.1577  -16.3358    0.0000 C   0  0  0  0  0  0  0  0  0  0  0  0
   16.5331  -16.3317    0.0000 O   0  0  0  0  0  0  0  0  0  0  0  0
   18.1738  -11.6542    0.0000 C   0  0  0  0  0  0  0  0  0  0  0  0
   16.5411  -11.6542    0.0000 O   0  0  0  0  0  0  0  0  0  0  0  0
   15.7268  -12.1237    0.0000 C   0  0  0  0  0  0  0  0  0  0  0  0
   19.8707  -15.5857    0.0000 H   0  0  0  0  0  0  0  0  0  0  0  0
  1  2  1  0     0  0
  1  3  1  0     0  0
  1  4  1  0     0  0
  1  5  1  1     0  0
  2  6  2  0     0  0
  2  7  1  0     0  0
  3  8  1  0     0  0
  3  9  1  0     0  0
  4 10  1  6     0  0
  4 11  1  0     0  0
  5 12  1  0     0  0
  6 13  1  0     0  0
  7 14  1  0     0  0
  7 15  2  0     0  0
  8 16  1  1     0  0
  9 17  2  0     0  0
 11 18  1  6     0  0
 13 19  2  0     0  0
 13 20  1  0     0  0
 20 21  1  0     0  0
  6 10  1  0     0  0
  8 14  1  0     0  0
 11 17  1  0     0  0
 12 16  1  0     0  0
 15 19  1  0     0  0
  3 22  1  1     0  0
M  END
> <ID>
CHEBI:80579

> <NAME>
norcodeine

> <DEFINITION>
A morphinane-like compound that is the N-demethylated derivative of codeine.

> <STAR>
3

> <SYNONYM>
N-Desmethylcodeine; N-demethylcodeine; (-)-N-norcodeine

> <IUPAC_NAME>
3-methoxy-7,8-didehydro-4,5alpha-epoxymorphinan-6alpha-ol

> <INN>
norcodeinum; norcodeine; norcodeina

> <FORMULA>
C17H19NO3

> <MASS>
285.338

> <MONOISOTOPIC_MASS>
285.13649

> <CHARGE>
0

> <SMILES>
[C@@]123C4=C5C(=CC=C4C[C@H]([C@@]1(C=C[C@@H]([C@@H]2O5)O)[H])NCC3)OC

> <INCHI>
InChI=1S/C17H19NO3/c1-20-13-5-2-9-8-11-10-3-4-12(19)16-17(10,6-7-18-11)14(9)15(13)21-16/h2-5,10-12,16,18-19H,6-8H2,1H3/t10-,11+,12-,16-,17-/m0/s1

> <INCHIKEY>
HKOIXWVRNLGFOR-KOFBORESSA-N

> <CAS_REGISTRY_NUMBER>
467-15-2

> <REAXYS_REGISTRY_NUMBER>
93708

> <HMDB_ACCESSION>
HMDB0060657

> <KEGG_COMPOUND_ACCESSION>
C16576

> <WIKIPEDIA_ACCESSION>
Norcodeine

$$$$



26 30  0  0  1  0  0  0  0  0999 V2000
   24.0862  -17.9251    0.0000 C   0  0  0  0  0  0  0  0  0  0  0  0
   25.2766  -17.2250    0.0000 C   0  0  0  0  0  0  0  0  0  0  0  0
   22.7559  -17.4350    0.0000 C   0  0  3  0  0  0  0  0  0  0  0  0
   24.0862  -19.3255    0.0000 C   0  0  0  0  0  0  0  0  0  0  0  0
   26.4669  -17.9251    0.0000 C   0  0  0  0  0  0  0  0  0  0  0  0
   25.2766  -15.8246    0.0000 O   0  0  0  0  0  0  0  0  0  0  0  0
   21.9157  -18.6253    0.0000 C   0  0  3  0  0  0  0  0  0  0  0  0
   21.9157  -16.3147    0.0000 C   0  0  0  0  0  0  0  0  0  0  0  0
   25.2766  -20.0257    0.0000 C   0  0  0  0  0  0  0  0  0  0  0  0
   22.6859  -19.7456    0.0000 O   0  0  0  0  0  0  0  0  0  0  0  0
   27.6572  -17.2250    0.0000 C   0  0  0  0  0  0  0  0  0  0  0  0
   26.4669  -19.3255    0.0000 C   0  0  0  0  0  0  0  0  0  0  0  0
   26.4669  -15.1244    0.0000 C   0  0  0  0  0  0  0  0  0  0  0  0
   20.5853  -18.1352    0.0000 O   0  0  0  0  0  0  0  0  0  0  0  0
   20.5853  -16.7348    0.0000 C   0  0  0  0  0  0  0  0  0  0  0  0
   27.6572  -15.8246    0.0000 C   0  0  0  0  0  0  0  0  0  0  0  0
   27.6572  -20.0257    0.0000 O   0  0  0  0  0  0  0  0  0  0  0  0
   26.4669  -13.7240    0.0000 O   0  0  0  0  0  0  0  0  0  0  0  0
   28.9176  -19.3255    0.0000 C   0  0  0  0  0  0  0  0  0  0  0  0
   28.8699  -17.9251    0.0000 C   0  0  0  0  0  0  0  0  0  0  0  0
   30.0828  -17.2250    0.0000 C   0  0  0  0  0  0  0  0  0  0  0  0
   30.0828  -15.8246    0.0000 O   0  0  0  0  0  0  0  0  0  0  0  0
   28.8699  -15.1244    0.0000 C   0  0  0  0  0  0  0  0  0  0  0  0
   28.8699  -13.7242    0.0000 O   0  0  0  0  0  0  0  0  0  0  0  0
   23.5923  -16.3119    0.0000 H   0  0  0  0  0  0  0  0  0  0  0  0
   20.9255  -19.6155    0.0000 H   0  0  0  0  0  0  0  0  0  0  0  0
  1  2  1  0     0  0
  1  3  1  0     0  0
  1  4  2  0     0  0
  2  5  2  0     0  0
  2  6  1  0     0  0
  3  7  1  0     0  0
  3  8  1  0     0  0
  4  9  1  0     0  0
  4 10  1  0     0  0
  5 11  1  0     0  0
  5 12  1  0     0  0
  6 13  1  0     0  0
  7 14  1  0     0  0
  8 15  1  0     0  0
 11 16  2  0     0  0
 12 17  1  0     0  0
 13 18  2  0     0  0
 17 19  1  0     0  0
  7 10  1  0     0  0
  9 12  2  0     0  0
 13 16  1  0     0  0
 14 15  1  0     0  0
 11 20  1  0     0  0
 20 21  1  0     0  0
 21 22  1  0     0  0
 22 23  1  0     0  0
 16 23  1  0     0  0
 23 24  2  0     0  0
  3 25  1  6     0  0
  7 26  1  6     0  0
M  END
> <ID>
CHEBI:80705

> <NAME>
Aflatoxin G2

> <STAR>
2

> <FORMULA>
C17H14O7

> <MASS>
330.28890

> <MONOISOTOPIC_MASS>
330.07395

> <CHARGE>
0

> <SMILES>
COc1cc2O[C@H]3OCC[C@H]3c2c2oc(=O)c3C(=O)OCCc3c12

> <INCHI>
InChI=1S/C17H14O7/c1-20-9-6-10-12(8-3-5-22-17(8)23-10)14-11(9)7-2-4-21-15(18)13(7)16(19)24-14/h6,8,17H,2-5H2,1H3/t8-,17+/m0/s1

> <INCHIKEY>
WPCVRWVBBXIRMA-WNWIJWBNSA-N

> <CAS_REGISTRY_NUMBER>
7241-98-7

> <KEGG_COMPOUND_ACCESSION>
C16754

> <KNAPSACK_ACCESSION>
C00023619

$$$$



26 30  0  0  1  0  0  0  0  0999 V2000
   24.0698  -17.9115    0.0000 C   0  0  0  0  0  0  0  0  0  0  0  0
   25.2592  -17.2118    0.0000 C   0  0  0  0  0  0  0  0  0  0  0  0
   22.7404  -17.4217    0.0000 C   0  0  3  0  0  0  0  0  0  0  0  0
   24.0698  -19.3109    0.0000 C   0  0  0  0  0  0  0  0  0  0  0  0
   26.4487  -17.9115    0.0000 C   0  0  0  0  0  0  0  0  0  0  0  0
   25.2592  -15.8125    0.0000 O   0  0  0  0  0  0  0  0  0  0  0  0
   21.9007  -18.6112    0.0000 C   0  0  3  0  0  0  0  0  0  0  0  0
   21.9007  -16.3022    0.0000 C   0  0  0  0  0  0  0  0  0  0  0  0
   25.2592  -20.0106    0.0000 C   0  0  0  0  0  0  0  0  0  0  0  0
   22.6704  -19.7307    0.0000 O   0  0  0  0  0  0  0  0  0  0  0  0
   27.6382  -17.2118    0.0000 C   0  0  0  0  0  0  0  0  0  0  0  0
   26.4487  -19.3109    0.0000 C   0  0  0  0  0  0  0  0  0  0  0  0
   26.4487  -15.1128    0.0000 C   0  0  0  0  0  0  0  0  0  0  0  0
   20.5713  -18.1214    0.0000 O   0  0  0  0  0  0  0  0  0  0  0  0
   20.5713  -16.7220    0.0000 C   0  0  0  0  0  0  0  0  0  0  0  0
   27.6382  -15.8125    0.0000 C   0  0  0  0  0  0  0  0  0  0  0  0
   27.6382  -20.0106    0.0000 O   0  0  0  0  0  0  0  0  0  0  0  0
   26.4487  -13.7134    0.0000 O   0  0  0  0  0  0  0  0  0  0  0  0
   28.8976  -19.3109    0.0000 C   0  0  0  0  0  0  0  0  0  0  0  0
   28.8276  -17.9115    0.0000 C   0  0  0  0  0  0  0  0  0  0  0  0
   30.0871  -17.2118    0.0000 C   0  0  0  0  0  0  0  0  0  0  0  0
   30.0871  -15.8125    0.0000 O   0  0  0  0  0  0  0  0  0  0  0  0
   28.8276  -15.1128    0.0000 C   0  0  0  0  0  0  0  0  0  0  0  0
   28.8276  -13.7134    0.0000 O   0  0  0  0  0  0  0  0  0  0  0  0
   23.5800  -16.3022    0.0000 H   0  0  0  0  0  0  0  0  0  0  0  0
   20.9212  -19.5908    0.0000 H   0  0  0  0  0  0  0  0  0  0  0  0
  1  2  1  0     0  0
  1  3  1  0     0  0
  1  4  2  0     0  0
  2  5  2  0     0  0
  2  6  1  0     0  0
  3  7  1  0     0  0
  3  8  1  0     0  0
  4  9  1  0     0  0
  4 10  1  0     0  0
  5 11  1  0     0  0
  5 12  1  0     0  0
  6 13  1  0     0  0
  7 14  1  0     0  0
  8 15  2  0     0  0
 11 16  2  0     0  0
 12 17  1  0     0  0
 13 18  2  0     0  0
 17 19  1  0     0  0
  7 10  1  0     0  0
  9 12  2  0     0  0
 13 16  1  0     0  0
 14 15  1  0     0  0
 11 20  1  0     0  0
 20 21  1  0     0  0
 21 22  1  0     0  0
 22 23  1  0     0  0
 16 23  1  0     0  0
 23 24  2  0     0  0
  3 25  1  6     0  0
  7 26  1  6     0  0
M  END
> <ID>
CHEBI:80706

> <NAME>
Aflatoxin G1

> <STAR>
2

> <FORMULA>
C17H12O7

> <MASS>
328.27300

> <MONOISOTOPIC_MASS>
328.05830

> <CHARGE>
0

> <SMILES>
COc1cc2O[C@H]3OC=C[C@H]3c2c2oc(=O)c3C(=O)OCCc3c12

> <INCHI>
InChI=1S/C17H12O7/c1-20-9-6-10-12(8-3-5-22-17(8)23-10)14-11(9)7-2-4-21-15(18)13(7)16(19)24-14/h3,5-6,8,17H,2,4H2,1H3/t8-,17+/m0/s1

> <INCHIKEY>
XWIYFDMXXLINPU-WNWIJWBNSA-N

> <CAS_REGISTRY_NUMBER>
1165-39-5

> <KEGG_COMPOUND_ACCESSION>
C16755

> <KNAPSACK_ACCESSION>
C00023618

$$$$



24 28  0  0  1  0  0  0  0  0999 V2000
   21.4513  -20.4202    0.0000 C   0  0  0  0  0  0  0  0  0  0  0  0
   22.6615  -19.7244    0.0000 C   0  0  0  0  0  0  0  0  0  0  0  0
   20.1243  -19.9759    0.0000 C   0  0  3  0  0  0  0  0  0  0  0  0
   21.5155  -21.8234    0.0000 C   0  0  0  0  0  0  0  0  0  0  0  0
   23.8659  -20.4260    0.0000 C   0  0  0  0  0  0  0  0  0  0  0  0
   22.6675  -18.3272    0.0000 O   0  0  0  0  0  0  0  0  0  0  0  0
   19.2941  -21.1158    0.0000 C   0  0  3  0  0  0  0  0  0  0  0  0
   19.2998  -18.8301    0.0000 C   0  0  0  0  0  0  0  0  0  0  0  0
   22.6615  -22.5190    0.0000 C   0  0  0  0  0  0  0  0  0  0  0  0
   20.1126  -22.2501    0.0000 O   0  0  0  0  0  0  0  0  0  0  0  0
   25.0820  -19.7361    0.0000 C   0  0  0  0  0  0  0  0  0  0  0  0
   23.8659  -21.8234    0.0000 C   0  0  0  0  0  0  0  0  0  0  0  0
   23.8834  -17.6374    0.0000 C   0  0  0  0  0  0  0  0  0  0  0  0
   17.9552  -20.6716    0.0000 O   0  0  0  0  0  0  0  0  0  0  0  0
   17.9611  -19.2626    0.0000 C   0  0  0  0  0  0  0  0  0  0  0  0
   25.0877  -18.3389    0.0000 C   0  0  0  0  0  0  0  0  0  0  0  0
   26.4033  -20.1747    0.0000 C   0  0  0  0  0  0  0  0  0  0  0  0
   25.0820  -22.5190    0.0000 O   0  0  0  0  0  0  0  0  0  0  0  0
   23.8717  -16.2342    0.0000 O   0  0  0  0  0  0  0  0  0  0  0  0
   26.4150  -17.9179    0.0000 C   0  0  0  0  0  0  0  0  0  0  0  0
   27.2276  -19.0463    0.0000 C   0  0  0  0  0  0  0  0  0  0  0  0
   26.8534  -16.5850    0.0000 O   0  0  0  0  0  0  0  0  0  0  0  0
   20.8243  -18.7635    0.0000 H   0  0  0  0  0  0  0  0  0  0  0  0
   18.5941  -22.3282    0.0000 H   0  0  0  0  0  0  0  0  0  0  0  0
  1  2  1  0     0  0
  1  3  1  0     0  0
  1  4  2  0     0  0
  2  5  2  0     0  0
  2  6  1  0     0  0
  3  7  1  0     0  0
  3  8  1  0     0  0
  4  9  1  0     0  0
  4 10  1  0     0  0
  5 11  1  0     0  0
  5 12  1  0     0  0
  6 13  1  0     0  0
  7 14  1  0     0  0
  8 15  2  0     0  0
 11 16  2  0     0  0
 11 17  1  0     0  0
 12 18  1  0     0  0
 13 19  2  0     0  0
 16 20  1  0     0  0
 17 21  1  0     0  0
 20 22  2  0     0  0
  7 10  1  0     0  0
  9 12  2  0     0  0
 13 16  1  0     0  0
 14 15  1  0     0  0
 20 21  1  0     0  0
  3 23  1  6     0  0
  7 24  1  6     0  0
M  END
> <ID>
CHEBI:82579

> <NAME>
Aflatoxin P1

> <STAR>
2

> <SYNONYM>
AFP1

> <FORMULA>
C16H10O6

> <MASS>
298.24700

> <MONOISOTOPIC_MASS>
298.04774

> <CHARGE>
0

> <SMILES>
Oc1cc2O[C@H]3OC=C[C@H]3c2c2oc(=O)c3C(=O)CCc3c12

> <INCHI>
InChI=1S/C16H10O6/c17-8-2-1-6-11-9(18)5-10-13(7-3-4-20-16(7)21-10)14(11)22-15(19)12(6)8/h3-5,7,16,18H,1-2H2/t7-,16+/m0/s1

> <INCHIKEY>
NRCXNPKDOMYPPJ-HYORBCNSSA-N

> <CAS_REGISTRY_NUMBER>
32215-02-4

> <KEGG_COMPOUND_ACCESSION>
C19587

$$$$

Marvin  04101310142D          

 29 32  0  0  1  0            999 V2000
   19.3080  -21.3957    0.0000 C   0  0  0  0  0  0  0  0  0  0  0  0
   17.8089  -22.3782    0.0000 C   0  0  0  0  0  0  0  0  0  0  0  0
   19.3080  -20.0608    0.0000 C   0  0  2  0  0  0  0  0  0  0  0  0
   17.8089  -19.9033    0.0000 C   0  0  0  0  0  0  0  0  0  0  0  0
   19.7929  -20.7283    0.0000 C   0  0  0  0  0  0  0  0  0  0  0  0
   16.3799  -21.5532    0.0000 C   0  0  2  0  0  0  0  0  0  0  0  0
   17.0944  -20.3158    0.0000 C   0  0  0  0  0  0  0  0  0  0  0  0
   17.0944  -22.7907    0.0000 C   0  0  0  0  0  0  0  0  0  0  0  0
   16.3799  -22.3782    0.0000 C   0  0  0  0  0  0  0  0  0  0  0  0
   15.6654  -21.1408    0.0000 C   0  0  0  0  0  0  0  0  0  0  0  0
   15.6654  -22.7907    0.0000 C   0  0  0  0  0  0  0  0  0  0  0  0
   14.9511  -21.5532    0.0000 C   0  0  0  0  0  0  0  0  0  0  0  0
   17.8089  -21.5532    0.0000 C   0  0  2  0  0  0  0  0  0  0  0  0
   17.8089  -20.7283    0.0000 H   0  0  0  0  0  0  0  0  0  0  0  0
   17.0944  -21.1408    0.0000 C   0  0  1  0  0  0  0  0  0  0  0  0
   17.0944  -21.9657    0.0000 H   0  0  0  0  0  0  0  0  0  0  0  0
   18.5233  -20.3158    0.0000 C   0  0  2  0  0  0  0  0  0  0  0  0
   18.5233  -19.4908    0.0000 C   0  0  0  0  0  0  0  0  0  0  0  0
   18.5233  -21.1408    0.0000 C   0  0  1  0  0  0  0  0  0  0  0  0
   18.5233  -21.9657    0.0000 H   0  0  0  0  0  0  0  0  0  0  0  0
   14.2365  -22.7907    0.0000 O   0  0  0  0  0  0  0  0  0  0  0  0
   14.9511  -22.3782    0.0000 C   0  0  0  0  0  0  0  0  0  0  0  0
   16.3799  -20.7283    0.0000 C   0  0  0  0  0  0  0  0  0  0  0  0
   20.0224  -19.6483    0.0000 O   0  0  0  0  0  0  0  0  0  0  0  0
   19.3080  -19.2358    0.0000 C   0  0  0  0  0  0  0  0  0  0  0  0
   16.3799  -19.9033    0.0000 O   0  0  0  0  0  0  0  0  0  0  0  0
   18.5935  -18.8233    0.0000 O   0  0  0  0  0  0  0  0  0  0  0  0
   20.0224  -18.8233    0.0000 C   0  0  0  0  0  0  0  0  0  0  0  0
   20.0224  -17.9982    0.0000 O   0  0  0  0  0  0  0  0  0  0  0  0
 19 13  1  0  0  0  0
 19 17  1  0  0  0  0
 19  1  1  0  0  0  0
 13 15  1  0  0  0  0
 13  2  1  0  0  0  0
 17  3  1  0  0  0  0
 17  4  1  0  0  0  0
  5  1  1  0  0  0  0
 15  6  1  0  0  0  0
 15  7  1  0  0  0  0
  2  8  1  0  0  0  0
  6  9  1  0  0  0  0
  6 10  1  0  0  0  0
  9 11  2  0  0  0  0
 10 12  2  0  0  0  0
 11 22  1  0  0  0  0
  3  5  1  0  0  0  0
  4  7  1  0  0  0  0
  8  9  1  0  0  0  0
 12 22  1  0  0  0  0
 13 14  1  1  0  0  0
 15 16  1  6  0  0  0
 17 18  1  1  0  0  0
 19 20  1  6  0  0  0
 22 21  2  0  0  0  0
  6 23  1  1  0  0  0
  3 24  1  6  0  0  0
  3 25  1  0  0  0  0
  7 26  2  0  0  0  0
 27 25  2  0  0  0  0
 28 25  1  0  0  0  0
 29 28  1  0  0  0  0
M  END
> <ID>
CHEBI:8382

> <NAME>
prednisone

> <DEFINITION>
A synthetic glucocorticoid drug that is particularly effective as an immunosuppressant, and affects virtually all of the immune system. Prednisone is a prodrug that is converted by the liver into prednisolone (a β-hydroxy group instead of the oxo group at position 11), which is the active drug and also a steroid.

> <STAR>
3

> <SYNONYM>
prednison; Dehydrocortisone; 17,21-Dihydroxypregna-1,4-diene-3,11,20-trione; 1,4-Pregnadiene-17alpha,21-diol-3,11,20-trione; 1,2-Dehydrocortisone

> <IUPAC_NAME>
17,21-dihydroxypregna-1,4-diene-3,11,20-trione

> <INN>
prednisonum; prednisone; prednisone; prednisona

> <FORMULA>
C21H26O5

> <MASS>
358.42810

> <MONOISOTOPIC_MASS>
358.17802

> <CHARGE>
0

> <SMILES>
[H][C@@]12CCC3=CC(=O)C=C[C@]3(C)[C@@]1([H])C(=O)C[C@@]1(C)[C@@]2([H])CC[C@]1(O)C(=O)CO

> <INCHI>
InChI=1S/C21H26O5/c1-19-7-5-13(23)9-12(19)3-4-14-15-6-8-21(26,17(25)11-22)20(15,2)10-16(24)18(14)19/h5,7,9,14-15,18,22,26H,3-4,6,8,10-11H2,1-2H3/t14-,15-,18+,19-,20-,21-/m0/s1

> <INCHIKEY>
XOFYZVNMUHMLCC-ZPOLXVRWSA-N

> <BEILSTEIN_REGISTRY_NUMBER>
2065301

> <CAS_REGISTRY_NUMBER>
53-03-2

> <REAXYS_REGISTRY_NUMBER>
2065301

> <CHEMIDPLUS>
53-03-2

> <DRUGBANK_ACCESSION>
DB00635

> <KEGG_COMPOUND_ACCESSION>
C07370

> <WIKIPEDIA_ACCESSION>
Prednisone

> <PUBMED_CITATION>
10438974; 15859934; 18971570; 23093541; 23395281

$$$$

Mrv0541 07161408252D          

 19 20  0  0  0  0            999 V2000
    5.5093   -1.2929    0.0000 C   0  0  0  0  0  0  0  0  0  0  0  0
    6.2078   -0.8814    0.0000 C   0  0  0  0  0  0  0  0  0  0  0  0
    5.5093   -2.1243    0.0000 N   0  0  0  0  0  0  0  0  0  0  0  0
    4.7860   -0.8814    0.0000 C   0  0  0  0  0  0  0  0  0  0  0  0
    6.2078   -0.0540    0.0000 C   0  0  0  0  0  0  0  0  0  0  0  0
    6.9186   -1.2929    0.0000 N   0  0  0  0  0  0  0  0  0  0  0  0
    4.7860   -0.0540    0.0000 C   0  0  0  0  0  0  0  0  0  0  0  0
    5.5093    0.3575    0.0000 C   0  0  0  0  0  0  0  0  0  0  0  0
    1.9426   -2.5484    0.0000 N   0  0  0  0  0  0  0  0  0  0  0  0
    4.0627    0.3575    0.0000 O   0  0  0  0  0  0  0  0  0  0  0  0
    4.7943   -2.5277    0.0000 C   0  0  0  0  0  0  0  0  0  0  0  0
    6.9186    0.3575    0.0000 C   0  0  0  0  0  0  0  0  0  0  0  0
    7.6377   -0.8814    0.0000 C   0  0  0  0  0  0  0  0  0  0  0  0
    2.6617   -2.1368    0.0000 C   0  0  0  0  0  0  0  0  0  0  0  0
    3.3600   -0.0665    0.0000 C   0  0  0  0  0  0  0  0  0  0  0  0
    4.0834   -2.1243    0.0000 C   0  0  0  0  0  0  0  0  0  0  0  0
    4.7943   -3.3507    0.0000 C   0  0  0  0  0  0  0  0  0  0  0  0
    3.3767   -2.5484    0.0000 C   0  0  0  0  0  0  0  0  0  0  0  0
    7.6377   -0.0540    0.0000 C   0  0  0  0  0  0  0  0  0  0  0  0
  2  1  1  0  0  0  0
  3  1  1  0  0  0  0
  4  1  2  0  0  0  0
  5  2  1  0  0  0  0
  6  2  2  0  0  0  0
  7  4  1  0  0  0  0
  8  7  2  0  0  0  0
  9 14  1  0  0  0  0
 10  7  1  0  0  0  0
 11  3  1  0  0  0  0
 12  5  2  0  0  0  0
 13  6  1  0  0  0  0
 14 18  1  0  0  0  0
 15 10  1  0  0  0  0
 16 11  1  0  0  0  0
 17 11  1  0  0  0  0
 18 16  1  0  0  0  0
 19 13  2  0  0  0  0
  5  8  1  0  0  0  0
 12 19  1  0  0  0  0
M  END
> <ID>
CHEBI:8405

> <NAME>
primaquine

> <DEFINITION>
An N-substituted diamine that is pentane-1,4-diamine substituted by a 6-methoxyquinolin-8-yl group at the N4 position. It is a drug used in the treatment of malaria and Pneumocystis pneumonia.

> <STAR>
3

> <SECONDARY_ID>
CHEBI:110389

> <SYNONYM>
Primaquin; Primachinum; Primachin; Neo-Quipenyl; 8-(4-Amino-1-methylbutylamino)-6-methoxyquinoline; 8-((4-Amino-1-methylbutyl)amino)-6-methoxyquinoline; 6-Methoxy-8-(4-amino-1-methylbutylamino)quinoline

> <IUPAC_NAME>
N(4)-(6-methoxyquinolin-8-yl)pentane-1,4-diamine

> <INN>
primaquinum; primaquine; primaquina

> <FORMULA>
C15H21N3O

> <MASS>
259.34670

> <MONOISOTOPIC_MASS>
259.16846

> <CHARGE>
0

> <SMILES>
COc1cc(NC(C)CCCN)c2ncccc2c1

> <INCHI>
InChI=1S/C15H21N3O/c1-11(5-3-7-16)18-14-10-13(19-2)9-12-6-4-8-17-15(12)14/h4,6,8-11,18H,3,5,7,16H2,1-2H3

> <INCHIKEY>
INDBQLZJXZLFIT-UHFFFAOYSA-N

> <BEILSTEIN_REGISTRY_NUMBER>
19337

> <CAS_REGISTRY_NUMBER>
90-34-6

> <GMELIN_REGISTRY_NUMBER>
751542

> <REAXYS_REGISTRY_NUMBER>
19337

> <CHEMIDPLUS>
90-34-6

> <DRUGBANK_ACCESSION>
DB01087

> <HMDB_ACCESSION>
HMDB0015219

> <KEGG_COMPOUND_ACCESSION>
C07627

> <KEGG_DRUG_ACCESSION>
D08420

> <LINCS_ACCESSION>
LSM-1649

> <NIST_CHEMISTRY_WEBBOOK>
90-34-6

> <WIKIPEDIA_ACCESSION>
Primaquine

> <PUBMED_CITATION>
10928454; 11303037; 12036132; 14917959; 15494911; 16537060; 17253504; 18930565; 19114311; 2210868; 28279180; 28289025; 8920977

$$$$

Mrv0541 02121512282D          

 23 23  0  0  0  0            999 V2000
   16.3003   -0.2526    0.0000 C   0  0  1  0  0  0  0  0  0  0  0  0
   16.3003   -1.0776    0.0000 C   0  0  1  0  0  0  0  0  0  0  0  0
   15.5857    0.1599    0.0000 O   0  0  0  0  0  0  0  0  0  0  0  0
   15.5857   -1.4901    0.0000 C   0  0  2  0  0  0  0  0  0  0  0  0
   14.8713   -0.2526    0.0000 C   0  0  1  0  0  0  0  0  0  0  0  0
   14.8713   -1.0776    0.0000 C   0  0  1  0  0  0  0  0  0  0  0  0
   17.0147    0.1599    0.0000 O   0  0  0  0  0  0  0  0  0  0  0  0
   17.0147   -1.4901    0.0000 N   0  0  0  0  0  0  0  0  0  0  0  0
   15.5857   -2.3151    0.0000 O   0  0  0  0  0  0  0  0  0  0  0  0
   14.1568   -1.4901    0.0000 O   0  0  0  0  0  0  0  0  0  0  0  0
   14.1568    0.1599    0.0000 C   0  0  0  0  0  0  0  0  0  0  0  0
   13.4424   -0.2527    0.0000 O   0  0  0  0  0  0  0  0  0  0  0  0
   12.7279    0.1598    0.0000 S   0  0  0  0  0  0  0  0  0  0  0  0
   12.3154   -0.5546    0.0000 O   0  0  0  0  0  0  0  0  0  0  0  0
   13.1404    0.8743    0.0000 O   0  0  0  0  0  0  0  0  0  0  0  0
   12.0134    0.5723    0.0000 O   0  5  0  0  0  0  0  0  0  0  0  0
   17.7292   -0.2526    0.0000 C   0  0  0  0  0  0  0  0  0  0  0  0
   18.4437    0.1599    0.0000 C   0  0  0  0  0  0  0  0  0  0  0  0
   19.1581   -0.2526    0.0000 C   0  0  0  0  0  0  0  0  0  0  0  0
   19.8726    0.1599    0.0000 N   0  0  0  0  0  0  0  0  0  0  0  0
   17.0282   -2.3150    0.0000 C   0  0  0  0  0  0  0  0  0  0  0  0
   16.3205   -2.7391    0.0000 O   0  0  0  0  0  0  0  0  0  0  0  0
   17.7493   -2.7158    0.0000 C   0  0  0  0  0  0  0  0  0  0  0  0
  1  2  1  0  0  0  0
  1  3  1  0  0  0  0
  2  4  1  0  0  0  0
  3  5  1  0  0  0  0
  4  6  1  0  0  0  0
  5  6  1  0  0  0  0
  1  7  1  1  0  0  0
  2  8  1  6  0  0  0
  4  9  1  1  0  0  0
  6 10  1  6  0  0  0
  5 11  1  1  0  0  0
 12 11  1  0  0  0  0
 14 13  2  0  0  0  0
 15 13  2  0  0  0  0
 16 13  1  0  0  0  0
 12 13  1  0  0  0  0
 17  7  1  0  0  0  0
 18 17  1  0  0  0  0
 19 18  1  0  0  0  0
 20 19  1  0  0  0  0
 21  8  1  0  0  0  0
 21 22  2  0  0  0  0
 21 23  1  0  0  0  0
M  CHG  1  16  -1
M  END
> <ID>
CHEBI:84768

> <NAME>
3-aminopropyl N-acetyl-6-O-sulfonato-beta-D-glucosaminide

> <DEFINITION>
The organosulfate oxoanion that is N-acetylated 6-O-sulfonato-β-D-glucosamine linked glycosidically to a 3-aminopropyl group.

> <STAR>
3

> <IUPAC_NAME>
3-aminopropyl 2-acetamido-2-deoxy-6-O-sulfonato-beta-D-glucopyranoside

> <FORMULA>
C11H21N2O9S

> <MASS>
357.35800

> <MONOISOTOPIC_MASS>
357.09733

> <CHARGE>
-1

> <SMILES>
CC(=O)N[C@@H]1[C@@H](O)[C@H](O)[C@@H](COS([O-])(=O)=O)O[C@H]1OCCCN

> <INCHI>
InChI=1S/C11H22N2O9S/c1-6(14)13-8-10(16)9(15)7(5-21-23(17,18)19)22-11(8)20-4-2-3-12/h7-11,15-16H,2-5,12H2,1H3,(H,13,14)(H,17,18,19)/p-1/t7-,8-,9-,10-,11-/m1/s1

> <INCHIKEY>
NKBMTWFJKBBURQ-ISUQUUIWSA-M

> <PUBMED_CITATION>
22846255

$$$$

Mrv0541 02121512582D          

 17 17  0  0  1  0            999 V2000
   21.7447  -12.3353    0.0000 C   0  0  1  0  0  0  0  0  0  0  0  0
   21.7447  -13.1603    0.0000 C   0  0  1  0  0  0  0  0  0  0  0  0
   21.0302  -11.9228    0.0000 O   0  0  0  0  0  0  0  0  0  0  0  0
   21.0302  -13.5728    0.0000 C   0  0  2  0  0  0  0  0  0  0  0  0
   20.3157  -12.3353    0.0000 C   0  0  1  0  0  0  0  0  0  0  0  0
   20.3157  -13.1603    0.0000 C   0  0  2  0  0  0  0  0  0  0  0  0
   22.4592  -11.9228    0.0000 O   0  0  0  0  0  0  0  0  0  0  0  0
   22.4592  -13.5728    0.0000 O   0  0  0  0  0  0  0  0  0  0  0  0
   21.0302  -14.3978    0.0000 O   0  0  0  0  0  0  0  0  0  0  0  0
   19.6013  -13.5728    0.0000 O   0  0  0  0  0  0  0  0  0  0  0  0
   19.6013  -11.9228    0.0000 C   0  0  0  0  0  0  0  0  0  0  0  0
   18.8868  -12.3353    0.0000 O   0  5  0  0  0  0  0  0  0  0  0  0
   23.1737  -12.3353    0.0000 C   0  0  0  0  0  0  0  0  0  0  0  0
   23.8881  -11.9228    0.0000 C   0  0  0  0  0  0  0  0  0  0  0  0
   24.6027  -12.3353    0.0000 C   0  0  0  0  0  0  0  0  0  0  0  0
   25.3171  -11.9228    0.0000 N   0  0  0  0  0  0  0  0  0  0  0  0
   19.6013  -11.0978    0.0000 O   0  0  0  0  0  0  0  0  0  0  0  0
  1  2  1  0  0  0  0
  1  3  1  0  0  0  0
  2  4  1  0  0  0  0
  3  5  1  0  0  0  0
  4  6  1  0  0  0  0
  5  6  1  0  0  0  0
  1  7  1  1  0  0  0
  2  8  1  6  0  0  0
  4  9  1  1  0  0  0
  6 10  1  1  0  0  0
  5 11  1  1  0  0  0
 12 11  1  0  0  0  0
 13  7  1  0  0  0  0
 14 13  1  0  0  0  0
 15 14  1  0  0  0  0
 16 15  1  0  0  0  0
 11 17  2  0  0  0  0
M  CHG  1  12  -1
M  END
> <ID>
CHEBI:84770

> <NAME>
3-aminopropyl beta-D-galactopyranosiduronate

> <DEFINITION>
A carbohydrate acid derivative anion in which the anionic species formed by proton loss from the carboxy function of β-D-galacturonic acid is linked glycosidically to a 3-aminopropyl group.

> <STAR>
3

> <IUPAC_NAME>
3-aminopropyl beta-D-galactopyranosiduronate

> <FORMULA>
C9H16NO7

> <MASS>
250.22640

> <MONOISOTOPIC_MASS>
250.09323

> <CHARGE>
-1

> <SMILES>
NCCCO[C@@H]1O[C@@H]([C@H](O)[C@H](O)[C@H]1O)C([O-])=O

> <INCHI>
InChI=1S/C9H17NO7/c10-2-1-3-16-9-6(13)4(11)5(12)7(17-9)8(14)15/h4-7,9,11-13H,1-3,10H2,(H,14,15)/p-1/t4-,5+,6+,7-,9+/m0/s1

> <INCHIKEY>
GDHKPCYWNVPHIH-SDBNBOCMSA-M

> <PUBMED_CITATION>
22846255

$$$$

Mrv0541 02121515542D          

 19 19  0  0  0  0            999 V2000
   12.2909   -1.0986    0.0000 C   0  0  0  0  0  0  0  0  0  0  0  0
   12.2909   -1.9236    0.0000 C   0  0  1  0  0  0  0  0  0  0  0  0
   11.5764   -0.6861    0.0000 O   0  0  0  0  0  0  0  0  0  0  0  0
   11.5764   -2.3361    0.0000 C   0  0  2  0  0  0  0  0  0  0  0  0
   10.8619   -1.0986    0.0000 C   0  0  1  0  0  0  0  0  0  0  0  0
   10.8619   -1.9236    0.0000 C   0  0  1  0  0  0  0  0  0  0  0  0
   13.0054   -0.6861    0.0000 O   0  0  0  0  0  0  0  0  0  0  0  0
   13.0054   -2.3361    0.0000 N   0  0  0  0  0  0  0  0  0  0  0  0
   11.5764   -3.1611    0.0000 O   0  0  0  0  0  0  0  0  0  0  0  0
   10.1474   -2.3361    0.0000 O   0  0  0  0  0  0  0  0  0  0  0  0
   10.1474   -0.6861    0.0000 C   0  0  0  0  0  0  0  0  0  0  0  0
    9.4330   -1.0986    0.0000 O   0  0  0  0  0  0  0  0  0  0  0  0
   13.0054   -3.1611    0.0000 C   0  0  0  0  0  0  0  0  0  0  0  0
   12.2909   -3.5736    0.0000 O   0  0  0  0  0  0  0  0  0  0  0  0
   13.7199   -3.5736    0.0000 C   0  0  0  0  0  0  0  0  0  0  0  0
    8.7185   -0.6861    0.0000 S   0  0  0  0  0  0  0  0  0  0  0  0
    8.3060   -1.4005    0.0000 O   0  0  0  0  0  0  0  0  0  0  0  0
    9.1310    0.0284    0.0000 O   0  0  0  0  0  0  0  0  0  0  0  0
    8.0040   -0.2736    0.0000 O   0  5  0  0  0  0  0  0  0  0  0  0
  1  2  1  0  0  0  0
  1  3  1  0  0  0  0
  2  4  1  0  0  0  0
  3  5  1  0  0  0  0
  4  6  1  0  0  0  0
  5  6  1  0  0  0  0
  1  7  1  0  0  0  0
  2  8  1  6  0  0  0
  4  9  1  1  0  0  0
  6 10  1  6  0  0  0
  5 11  1  1  0  0  0
 12 11  1  0  0  0  0
  8 13  1  0  0  0  0
 13 14  2  0  0  0  0
 13 15  1  0  0  0  0
 17 16  2  0  0  0  0
 18 16  2  0  0  0  0
 19 16  1  0  0  0  0
 12 16  1  0  0  0  0
M  CHG  1  19  -1
M  END
> <ID>
CHEBI:84775

> <NAME>
N-acetyl-D-glucosamine 6-sulfate(1-)

> <DEFINITION>
The  organosulfate oxoanion formed by proton loss from the sulfate group of N-acetyl-6-O-sulfo-D-glucosamine.

> <STAR>
3

> <IUPAC_NAME>
2-acetamido-2-deoxy-6-O-sulfonato-D-glucopyranose

> <FORMULA>
C8H14NO9S

> <MASS>
300.26400

> <MONOISOTOPIC_MASS>
300.03948

> <CHARGE>
-1

> <SMILES>
CC(=O)N[C@H]1C(O)O[C@H](COS([O-])(=O)=O)[C@@H](O)[C@@H]1O

> <INCHI>
InChI=1S/C8H15NO9S/c1-3(10)9-5-7(12)6(11)4(18-8(5)13)2-17-19(14,15)16/h4-8,11-13H,2H2,1H3,(H,9,10)(H,14,15,16)/p-1/t4-,5-,6-,7-,8?/m1/s1

> <INCHIKEY>
WJFVEEAIYIOATH-RTRLPJTCSA-M

> <PUBMED_CITATION>
22846255

$$$$

Mrv0541 02121516322D          

 16 16  0  0  1  0            999 V2000
   21.4367  -11.7092    0.0000 C   0  0  0  0  0  0  0  0  0  0  0  0
   21.4367  -12.5342    0.0000 C   0  0  1  0  0  0  0  0  0  0  0  0
   20.7222  -11.2966    0.0000 O   0  0  0  0  0  0  0  0  0  0  0  0
   20.7222  -12.9467    0.0000 C   0  0  2  0  0  0  0  0  0  0  0  0
   20.0077  -11.7092    0.0000 C   0  0  1  0  0  0  0  0  0  0  0  0
   20.0077  -12.5342    0.0000 C   0  0  1  0  0  0  0  0  0  0  0  0
   22.1512  -11.2966    0.0000 O   0  0  0  0  0  0  0  0  0  0  0  0
   22.1512  -12.9467    0.0000 N   0  0  0  0  0  0  0  0  0  0  0  0
   20.7221  -13.7717    0.0000 O   0  0  0  0  0  0  0  0  0  0  0  0
   19.2933  -12.9467    0.0000 O   0  0  0  0  0  0  0  0  0  0  0  0
   19.2933  -11.2966    0.0000 C   0  0  0  0  0  0  0  0  0  0  0  0
   18.5788  -11.7092    0.0000 O   0  0  0  0  0  0  0  0  0  0  0  0
   17.8643  -11.2966    0.0000 S   0  0  0  0  0  0  0  0  0  0  0  0
   17.4518  -12.0111    0.0000 O   0  0  0  0  0  0  0  0  0  0  0  0
   18.2768  -10.5822    0.0000 O   0  0  0  0  0  0  0  0  0  0  0  0
   17.1498  -10.8841    0.0000 O   0  5  0  0  0  0  0  0  0  0  0  0
  1  2  1  0  0  0  0
  1  3  1  0  0  0  0
  2  4  1  0  0  0  0
  3  5  1  0  0  0  0
  4  6  1  0  0  0  0
  5  6  1  0  0  0  0
  1  7  1  0  0  0  0
  2  8  1  6  0  0  0
  4  9  1  1  0  0  0
  6 10  1  6  0  0  0
  5 11  1  1  0  0  0
 12 11  1  0  0  0  0
 14 13  2  0  0  0  0
 15 13  2  0  0  0  0
 16 13  1  0  0  0  0
 12 13  1  0  0  0  0
M  CHG  1  16  -1
M  END
> <ID>
CHEBI:84777

> <NAME>
6-O-sulfonato-D-glucosamine

> <DEFINITION>
The organosulfate oxoanion formed by proton loss from the sulfate group of 6-O-sulfo-D-glucosamine.

> <STAR>
3

> <IUPAC_NAME>
2-amino-2-deoxy-6-O-sulfonato-D-glucopyranose

> <FORMULA>
C6H12NO8S

> <MASS>
258.22700

> <MONOISOTOPIC_MASS>
258.02891

> <CHARGE>
-1

> <SMILES>
N[C@H]1C(O)O[C@H](COS([O-])(=O)=O)[C@@H](O)[C@@H]1O

> <INCHI>
InChI=1S/C6H13NO8S/c7-3-5(9)4(8)2(15-6(3)10)1-14-16(11,12)13/h2-6,8-10H,1,7H2,(H,11,12,13)/p-1/t2-,3-,4-,5-,6?/m1/s1

> <INCHIKEY>
MTDHILKWIRSIHB-IVMDWMLBSA-M

> <PUBMED_CITATION>
22846255

$$$$

Mrv0541 02121519212D          

 32 33  0  0  1  0            999 V2000
    6.8995   -6.1527    0.0000 C   0  0  2  0  0  0  0  0  0  0  0  0
    6.8995   -6.9776    0.0000 C   0  0  1  0  0  0  0  0  0  0  0  0
    6.1849   -5.7402    0.0000 O   0  0  0  0  0  0  0  0  0  0  0  0
    6.1849   -7.3901    0.0000 C   0  0  2  0  0  0  0  0  0  0  0  0
    5.4705   -6.1527    0.0000 C   0  0  1  0  0  0  0  0  0  0  0  0
    5.4705   -6.9776    0.0000 C   0  0  1  0  0  0  0  0  0  0  0  0
    7.6138   -5.7402    0.0000 O   0  0  0  0  0  0  0  0  0  0  0  0
    7.6138   -7.3901    0.0000 O   0  0  0  0  0  0  0  0  0  0  0  0
    6.1849   -8.2152    0.0000 O   0  0  0  0  0  0  0  0  0  0  0  0
    4.7560   -7.3901    0.0000 O   0  0  0  0  0  0  0  0  0  0  0  0
    4.7560   -5.7402    0.0000 C   0  0  0  0  0  0  0  0  0  0  0  0
    4.0415   -6.1527    0.0000 O   0  0  0  0  0  0  0  0  0  0  0  0
    9.7573   -4.5027    0.0000 C   0  0  1  0  0  0  0  0  0  0  0  0
    9.7573   -5.3277    0.0000 C   0  0  1  0  0  0  0  0  0  0  0  0
    9.0428   -4.0902    0.0000 O   0  0  0  0  0  0  0  0  0  0  0  0
    9.0428   -5.7402    0.0000 C   0  0  2  0  0  0  0  0  0  0  0  0
    8.3283   -4.5027    0.0000 C   0  0  1  0  0  0  0  0  0  0  0  0
    8.3283   -5.3277    0.0000 C   0  0  1  0  0  0  0  0  0  0  0  0
   10.4718   -4.0901    0.0000 O   0  0  0  0  0  0  0  0  0  0  0  0
   10.4718   -5.7402    0.0000 O   0  0  0  0  0  0  0  0  0  0  0  0
    9.0428   -6.5652    0.0000 O   0  0  0  0  0  0  0  0  0  0  0  0
    7.6138   -4.0902    0.0000 C   0  0  0  0  0  0  0  0  0  0  0  0
    6.8995   -4.5027    0.0000 O   0  0  0  0  0  0  0  0  0  0  0  0
    6.1850   -4.0902    0.0000 S   0  0  0  0  0  0  0  0  0  0  0  0
    5.7724   -4.8046    0.0000 O   0  0  0  0  0  0  0  0  0  0  0  0
    6.5975   -3.3757    0.0000 O   0  0  0  0  0  0  0  0  0  0  0  0
    5.4705   -3.6777    0.0000 O   0  5  0  0  0  0  0  0  0  0  0  0
   11.1862   -4.5026    0.0000 C   0  0  0  0  0  0  0  0  0  0  0  0
    3.3271   -5.7401    0.0000 S   0  0  0  0  0  0  0  0  0  0  0  0
    2.9145   -6.4546    0.0000 O   0  0  0  0  0  0  0  0  0  0  0  0
    3.7396   -5.0257    0.0000 O   0  0  0  0  0  0  0  0  0  0  0  0
    2.6126   -5.3276    0.0000 O   0  5  0  0  0  0  0  0  0  0  0  0
  1  2  1  0  0  0  0
  1  3  1  0  0  0  0
  2  4  1  0  0  0  0
  3  5  1  0  0  0  0
  4  6  1  0  0  0  0
  5  6  1  0  0  0  0
  1  7  1  6  0  0  0
  2  8  1  6  0  0  0
  4  9  1  1  0  0  0
  6 10  1  6  0  0  0
  5 11  1  1  0  0  0
 12 11  1  0  0  0  0
 13 14  1  0  0  0  0
 13 15  1  0  0  0  0
 14 16  1  0  0  0  0
 15 17  1  0  0  0  0
 16 18  1  0  0  0  0
 17 18  1  0  0  0  0
 13 19  1  1  0  0  0
 14 20  1  6  0  0  0
 16 21  1  1  0  0  0
 18  7  1  6  0  0  0
 17 22  1  1  0  0  0
 23 22  1  0  0  0  0
 25 24  2  0  0  0  0
 26 24  2  0  0  0  0
 27 24  1  0  0  0  0
 23 24  1  0  0  0  0
 19 28  1  0  0  0  0
 30 29  2  0  0  0  0
 31 29  2  0  0  0  0
 32 29  1  0  0  0  0
 12 29  1  0  0  0  0
M  CHG  2  27  -1  32  -1
M  END
> <ID>
CHEBI:84781

> <NAME>
alpha-D-Glcp6S-(1->4)-beta-D-Glcp6SOMe(2-)

> <DEFINITION>
The organosulfate oxoanion formed by deprotonation of the sulfo groups in α-D-Glcp6S-(1→4)-β-D-Glcp6SOMe.

> <STAR>
3

> <SYNONYM>
methyl 6-O-sulfonato-alpha-D-glucosyl-(1->4)-6-O-sulfonato-beta-D-glucoside; methyl 6-O-sulfonato-4-O-(6-O-sulfonato-alpha-D-glucosyl)-beta-D-glucoside; alpha-D-Glc6S-(1->4)-beta-D-Glc6SOMe(2-)

> <IUPAC_NAME>
methyl 6-O-sulfonato-alpha-D-glucopyranosyl-(1->4)-6-O-sulfonato-beta-D-glucopyranoside; methyl 6-O-sulfonato-4-O-(6-O-sulfonato-alpha-D-glucopyranosyl)-beta-D-glucopyranoside

> <FORMULA>
C13H22O17S2

> <MASS>
514.43500

> <MONOISOTOPIC_MASS>
514.03094

> <CHARGE>
-2

> <SMILES>
CO[C@@H]1O[C@H](COS([O-])(=O)=O)[C@@H](O[C@H]2O[C@H](COS([O-])(=O)=O)[C@@H](O)[C@H](O)[C@H]2O)[C@H](O)[C@H]1O

> <INCHI>
InChI=1S/C13H24O17S2/c1-25-12-10(18)8(16)11(5(29-12)3-27-32(22,23)24)30-13-9(17)7(15)6(14)4(28-13)2-26-31(19,20)21/h4-18H,2-3H2,1H3,(H,19,20,21)(H,22,23,24)/p-2/t4-,5-,6-,7+,8-,9-,10-,11-,12-,13-/m1/s1

> <INCHIKEY>
JTMVJCHSEQXVQH-AGVQYRFFSA-L

> <PUBMED_CITATION>
22846255

$$$$

Mrv0541 03021514152D          

 37 39  0  0  0  0            999 V2000
   22.2297  -13.6060    0.0000 C   0  0  2  0  0  0  0  0  0  0  0  0
   22.9441  -14.0185    0.0000 C   0  0  1  0  0  0  0  0  0  0  0  0
   23.6585  -12.7809    0.0000 C   0  0  2  0  0  0  0  0  0  0  0  0
   22.9442  -12.3685    0.0000 O   0  0  0  0  0  0  0  0  0  0  0  0
   23.6585  -13.6060    0.0000 C   0  0  2  0  0  0  0  0  0  0  0  0
   22.2297  -12.7810    0.0000 C   0  0  2  0  0  0  0  0  0  0  0  0
   24.3729  -14.0185    0.0000 O   0  0  0  0  0  0  0  0  0  0  0  0
   22.9441  -14.8435    0.0000 O   0  0  0  0  0  0  0  0  0  0  0  0
   21.5153  -14.0185    0.0000 O   0  0  0  0  0  0  0  0  0  0  0  0
   21.5152  -12.3685    0.0000 C   0  0  0  0  0  0  0  0  0  0  0  0
   21.5153  -11.5436    0.0000 O   0  0  0  0  0  0  0  0  0  0  0  0
   24.3729  -14.8434    0.0000 O   0  0  0  0  0  0  0  0  0  0  0  0
   23.6585  -15.2560    0.0000 S   0  0  0  0  0  0  0  0  0  0  0  0
   23.2462  -15.9705    0.0000 O   0  0  0  0  0  0  0  0  0  0  0  0
   24.0710  -15.9705    0.0000 O   0  0  0  0  0  0  0  0  0  0  0  0
   24.3731  -12.3684    0.0000 O   0  0  0  0  0  0  0  0  0  0  0  0
   25.8019  -12.3684    0.0000 C   0  0  1  0  0  0  0  0  0  0  0  0
   26.5163  -11.9559    0.0000 C   0  0  2  0  0  0  0  0  0  0  0  0
   25.8019  -13.1932    0.0000 O   0  0  0  0  0  0  0  0  0  0  0  0
   25.0875  -11.9559    0.0000 C   0  0  1  0  0  0  0  0  0  0  0  0
   26.5163  -11.1309    0.0000 C   0  0  1  0  0  0  0  0  0  0  0  0
   25.0875  -11.1309    0.0000 C   0  0  2  0  0  0  0  0  0  0  0  0
   25.8019  -10.7185    0.0000 O   0  0  0  0  0  0  0  0  0  0  0  0
   27.2309  -10.7185    0.0000 O   0  0  0  0  0  0  0  0  0  0  0  0
   24.3731  -10.7185    0.0000 C   0  0  0  0  0  0  0  0  0  0  0  0
   27.2309  -12.3684    0.0000 O   0  0  0  0  0  0  0  0  0  0  0  0
   24.3731   -9.8936    0.0000 O   0  0  0  0  0  0  0  0  0  0  0  0
   27.2308  -13.1933    0.0000 O   0  0  0  0  0  0  0  0  0  0  0  0
   27.9453  -13.6059    0.0000 C   0  0  2  0  0  0  0  0  0  0  0  0
   26.5163  -13.6057    0.0000 C   0  0  2  0  0  0  0  0  0  0  0  0
   26.5163  -14.4307    0.0000 C   0  0  2  0  0  0  0  0  0  0  0  0
   27.2307  -14.8433    0.0000 C   0  0  1  0  0  0  0  0  0  0  0  0
   27.9453  -14.4309    0.0000 C   0  0  2  0  0  0  0  0  0  0  0  0
   25.8019  -14.8431    0.0000 O   0  0  0  0  0  0  0  0  0  0  0  0
   27.2306  -15.6683    0.0000 O   0  0  0  0  0  0  0  0  0  0  0  0
   28.6596  -14.8435    0.0000 O   0  0  0  0  0  0  0  0  0  0  0  0
   28.6599  -13.1935    0.0000 C   0  0  0  0  0  0  0  0  0  0  0  0
  1  9  1  1  0  0  0
  2  1  1  0  0  0  0
  2  8  1  1  0  0  0
  3  4  1  0  0  0  0
  3  5  1  0  0  0  0
  5  2  1  0  0  0  0
  5  7  1  6  0  0  0
  6  1  1  0  0  0  0
  4  6  1  0  0  0  0
  6 10  1  1  0  0  0
 10 11  1  0  0  0  0
  8 13  1  0  0  0  0
 13 12  1  0  0  0  0
 13 14  2  0  0  0  0
 15 13  2  0  0  0  0
  3 16  1  1  0  0  0
 17 18  1  0  0  0  0
 17 19  1  1  0  0  0
 17 20  1  0  0  0  0
 18 21  1  0  0  0  0
 18 26  1  6  0  0  0
 20 22  1  0  0  0  0
 20 16  1  6  0  0  0
 21 23  1  0  0  0  0
 21 24  1  1  0  0  0
 22 25  1  1  0  0  0
 22 23  1  0  0  0  0
 25 27  1  0  0  0  0
 29 28  1  0  0  0  0
 30 28  1  0  0  0  0
 30 31  1  0  0  0  0
 31 34  1  6  0  0  0
 31 32  1  0  0  0  0
 32 35  1  1  0  0  0
 32 33  1  0  0  0  0
 33 29  1  0  0  0  0
 33 36  1  1  0  0  0
 29 37  1  1  0  0  0
 30 19  1  6  0  0  0
M  END
> <ID>
CHEBI:85055

> <NAME>
beta-D-Galp3S-(1->4)-[alpha-L-Fucp-(1->3)]-beta-D-Glcp

> <DEFINITION>
β-D-Galp3S-(1→4)-[α-L-Fucp-(1→3)]-D-Glcp with β configuration at the glucose anomeric centre.  A trisaccharide derivative that consists of β-D-glucose having an α-L-fucosyl residue attached at position 3 and a 3-sulfated β-D-galactosyl residue attached at position 4.

> <STAR>
3

> <SYNONYM>
beta-D-Gal3S-(1->4)-[alpha-L-Fuc-(1->3)]-beta-D-Glc; alpha-L-fucosyl-(1->3)-[3-O-sulfo-beta-D-galactosyl-(1->4)]-beta-D-D-glucose; [3OSO3]Galbeta1-4(Fucalpha1-3)Glcbeta; 6-deoxy-alpha-L-galactopyranosyl-(1->3)-[3-O-sulfo-beta-D-galactopyranosyl-(1->4)]-beta-D-glucopyranose; (3S)Galb1-4(Fuca1-3)Glcb

> <IUPAC_NAME>
alpha-L-fucopyranosyl-(1->3)-[3-O-sulfo-beta-D-galactopyranosyl-(1->4)]-beta-D-glucopyranose

> <FORMULA>
C18H32O18S

> <MASS>
568.50100

> <MONOISOTOPIC_MASS>
568.13094

> <CHARGE>
0

> <SMILES>
C[C@@H]1O[C@@H](O[C@@H]2[C@@H](O)[C@H](O)O[C@H](CO)[C@H]2O[C@@H]2O[C@H](CO)[C@H](O)[C@H](OS(O)(=O)=O)[C@H]2O)[C@@H](O)[C@H](O)[C@@H]1O

> <INCHI>
InChI=1S/C18H32O18S/c1-4-7(21)9(23)10(24)17(31-4)35-15-11(25)16(27)32-6(3-20)13(15)34-18-12(26)14(36-37(28,29)30)8(22)5(2-19)33-18/h4-27H,2-3H2,1H3,(H,28,29,30)/t4-,5+,6+,7+,8-,9+,10-,11+,12+,13+,14-,15+,16+,17-,18-/m0/s1

> <INCHIKEY>
HAVJAEDZKCIKEB-NXSOBZHJSA-N

> <PUBMED_CITATION>
25568069; 31537530

$$$$

Mrv0541 03241512222D          

 27 28  0  0  0  0            999 V2000
   22.4659   -0.1676    0.0000 C   0  0  1  0  0  0  0  0  0  0  0  0
   21.0936    1.4620    0.0000 N   0  0  0  0  0  0  0  0  0  0  0  0
   21.3509    0.6472    0.0000 C   0  0  2  0  0  0  0  0  0  0  0  0
   22.2086    0.6472    0.0000 C   0  0  2  0  0  0  0  0  0  0  0  0
   22.4659    1.4620    0.0000 N   0  0  0  0  0  0  0  0  0  0  0  0
   21.7798    1.9767    0.0000 C   0  0  0  0  0  0  0  0  0  0  0  0
   21.0507   -0.1676    0.0000 C   0  0  0  0  0  0  0  0  0  0  0  0
   21.7369   -0.6823    0.0000 S   0  0  0  0  0  0  0  0  0  0  0  0
   21.7798    2.8344    0.0000 O   0  0  0  0  0  0  0  0  0  0  0  0
   23.1950   -0.5536    0.0000 C   0  0  0  0  0  0  0  0  0  0  0  0
   23.9241   -0.1676    0.0000 C   0  0  0  0  0  0  0  0  0  0  0  0
   24.6102   -0.5965    0.0000 C   0  0  0  0  0  0  0  0  0  0  0  0
   25.3394   -0.1676    0.0000 C   0  0  0  0  0  0  0  0  0  0  0  0
   26.0684   -0.5965    0.0000 C   0  0  0  0  0  0  0  0  0  0  0  0
   26.7975   -0.1676    0.0000 N   0  0  0  0  0  0  0  0  0  0  0  0
   26.0684   -1.4113    0.0000 O   0  0  0  0  0  0  0  0  0  0  0  0
   27.5265   -0.5536    0.0000 C   0  0  0  0  0  0  0  0  0  0  0  0
   28.2556   -0.1676    0.0000 C   0  0  0  0  0  0  0  0  0  0  0  0
   28.9418   -0.5536    0.0000 C   0  0  0  0  0  0  0  0  0  0  0  0
   29.6708   -0.1676    0.0000 C   0  0  0  0  0  0  0  0  0  0  0  0
   30.3999   -0.5536    0.0000 C   0  0  1  0  0  0  0  0  0  0  0  0
   31.1290   -0.1676    0.0000 C   0  0  0  0  0  0  0  0  0  0  0  0
   30.3999   -1.4113    0.0000 N   0  0  0  0  0  0  0  0  0  0  0  0
   31.8581   -0.5536    0.0000 N   0  0  0  0  0  0  0  0  0  0  0  0
   31.1290    0.6901    0.0000 O   0  0  0  0  0  0  0  0  0  0  0  0
   20.4966    0.6448    0.0000 H   0  0  0  0  0  0  0  0  0  0  0  0
   23.0698    0.6448    0.0000 H   0  0  0  0  0  0  0  0  0  0  0  0
  2  3  1  0  0  0  0
  3  4  1  0  0  0  0
  4  5  1  0  0  0  0
  5  6  1  0  0  0  0
  2  6  1  0  0  0  0
  3  7  1  0  0  0  0
  7  8  1  0  0  0  0
  8  1  1  0  0  0  0
  4  1  1  0  0  0  0
  6  9  2  0  0  0  0
 10 11  1  0  0  0  0
 11 12  1  0  0  0  0
 12 13  1  0  0  0  0
 13 14  1  0  0  0  0
 14 15  1  0  0  0  0
 14 16  2  0  0  0  0
 15 17  1  0  0  0  0
 17 18  1  0  0  0  0
 18 19  1  0  0  0  0
 19 20  1  0  0  0  0
 20 21  1  0  0  0  0
 21 22  1  0  0  0  0
 21 23  1  1  0  0  0
 22 24  1  0  0  0  0
 22 25  2  0  0  0  0
  1 10  1  6  0  0  0
  3 26  1  1  0  0  0
  4 27  1  1  0  0  0
M  END
> <ID>
CHEBI:85290

> <NAME>
biocytinamide

> <DEFINITION>
An  amino acid amide formed by amidation of the carboxy function of biocytin: a fluorogenic reagent for specific C-terminal labelling of peptides and proteins by carboxypeptidase Y catalyzed transpeptidation reactions.

> <STAR>
3

> <SYNONYM>
N-epsilon-Biotinyl-lysine-amid; (3aS-(3aalpha,4beta(R*),6aalpha))-N-(5,6-diamino-6-oxohexyl)hexahydro-2-oxo-1H-thieno(3,4-d)imidazole-4-pentanamide; (2S)-2-amino-6-({5-[(3aS,4S,6aR)-2-oxohexahydro-1H-thieno[3,4-d]imidazol-4-yl]pentanoyl}amino)hexanamide

> <IUPAC_NAME>
N(6)-{5-[(3aS,4S,6aR)-2-oxohexahydro-1H-thieno[3,4-d]imidazol-4-yl]pentanoyl}-L-lysinamide

> <FORMULA>
C16H29N5O3S

> <MASS>
371.49800

> <MONOISOTOPIC_MASS>
371.19911

> <CHARGE>
0

> <SMILES>
N[C@@H](CCCCNC(=O)CCCC[C@@H]1SC[C@@H]2NC(=O)N[C@H]12)C(N)=O

> <INCHI>
InChI=1S/C16H29N5O3S/c17-10(15(18)23)5-3-4-8-19-13(22)7-2-1-6-12-14-11(9-25-12)20-16(24)21-14/h10-12,14H,1-9,17H2,(H2,18,23)(H,19,22)(H2,20,21,24)/t10-,11-,12-,14-/m0/s1

> <INCHIKEY>
BFTIPPVTTJTHLM-MNXVOIDGSA-N

> <CAS_REGISTRY_NUMBER>
61125-53-9

> <CHEMIDPLUS>
61125-53-9

> <PDBECHEM_ACCESSION>
41M

> <PUBMED_CITATION>
15281079; 25670234; 9177733

$$$$

Ketcher 01171912312D 1   1.00000     0.00000     0

 30 33  0     0  0            999 V2000
    6.6482   -2.5787    0.0000 C   0  0  0  0  0  0  0  0  0  0  0  0
    6.6482   -3.6531    0.0000 C   0  0  0  0  0  0  0  0  0  0  0  0
    5.7472   -4.1036    0.0000 C   0  0  0  0  0  0  0  0  0  0  0  0
    5.7472   -2.0936    0.0000 C   0  0  0  0  0  0  0  0  0  0  0  0
    7.4798   -4.1036    0.0000 C   0  0  0  0  0  0  0  0  0  0  0  0
    7.4798   -2.0936    0.0000 C   0  0  0  0  0  0  0  0  0  0  0  0
    4.9500   -2.5787    0.0000 C   0  0  0  0  0  0  0  0  0  0  0  0
    8.3809   -3.5491    0.0000 C   0  0  0  0  0  0  0  0  0  0  0  0
    8.3809   -2.5787    0.0000 C   0  0  0  0  0  0  0  0  0  0  0  0
    4.9500   -3.6531    0.0000 C   0  0  0  0  0  0  0  0  0  0  0  0
    6.6482   -5.6285    0.0000 C   0  0  0  0  0  0  0  0  0  0  0  0
    6.6482   -0.6727    0.0000 C   0  0  0  0  0  0  0  0  0  0  0  0
    5.7472   -1.1232    0.0000 C   0  0  0  0  0  0  0  0  0  0  0  0
    7.4798   -1.1232    0.0000 C   0  0  0  0  0  0  0  0  0  0  0  0
    5.7472   -5.1086    0.0000 C   0  0  0  0  0  0  0  0  0  0  0  0
    7.4798   -5.1086    0.0000 C   0  0  0  0  0  0  0  0  0  0  0  0
    8.3462   -5.5591    0.0000 S   0  0  0  0  0  0  0  0  0  0  0  0
    7.8264   -6.5295    0.0000 O   0  0  0  0  0  0  0  0  0  0  0  0
    9.2126   -6.0096    0.0000 O   0  0  0  0  0  0  0  0  0  0  0  0
    8.7967   -4.6926    0.0000 O   0  0  0  0  0  0  0  0  0  0  0  0
    4.8807   -5.5938    0.0000 S   0  0  0  0  0  0  0  0  0  0  0  0
    4.3608   -4.6235    0.0000 O   0  0  0  0  0  0  0  0  0  0  0  0
    4.0488   -6.0790    0.0000 O   0  0  0  0  0  0  0  0  0  0  0  0
    5.3658   -6.4255    0.0000 O   0  0  0  0  0  0  0  0  0  0  0  0
    4.9153   -0.5687    0.0000 S   0  0  0  0  0  0  0  0  0  0  0  0
    5.5045    0.3324    0.0000 O   0  0  0  0  0  0  0  0  0  0  0  0
    4.0837   -0.0835    0.0000 O   0  0  0  0  0  0  0  0  0  0  0  0
    4.3955   -1.4005    0.0000 O   0  0  0  0  0  0  0  0  0  0  0  0
    8.3462   -0.6033    0.0000 O   0  0  0  0  0  0  0  0  0  0  0  0
    8.3116    0.4017    0.0000 C   0  0  0  0  0  0  0  0  0  0  0  0
  2  1  2  0     0  0
  4  1  1  0     0  0
  6  1  1  0     0  0
  3  2  1  0     0  0
  5  2  1  0     0  0
 10  3  2  0     0  0
 15  3  1  0     0  0
  7  4  2  0     0  0
 13  4  1  0     0  0
  8  5  1  0     0  0
 16  5  2  0     0  0
  9  6  1  0     0  0
 14  6  2  0     0  0
 10  7  1  0     0  0
  9  8  2  0     0  0
 15 11  2  0     0  0
 16 11  1  0     0  0
 13 12  2  0     0  0
 14 12  1  0     0  0
 25 13  1  0     0  0
 29 14  1  0     0  0
 21 15  1  0     0  0
 17 16  1  0     0  0
 18 17  2  0     0  0
 19 17  1  0     0  0
 20 17  2  0     0  0
 22 21  2  0     0  0
 23 21  1  0     0  0
 24 21  2  0     0  0
 26 25  2  0     0  0
 27 25  1  0     0  0
 28 25  2  0     0  0
 30 29  1  0     0  0
M  END
> <ID>
CHEBI:85377

> <NAME>
8-methoxypyrene-1,3,6-trisulfonic acid

> <DEFINITION>
An arenesulfonic acid consisting of pyrene methoxy-substituted at C-8 and substituted at C-1, -3 and 6 by sulfonic acid groups.

> <STAR>
3

> <SYNONYM>
MTPS

> <IUPAC_NAME>
8-methoxypyrene-1,3,6-trisulfonic acid

> <FORMULA>
C17H12O10S3

> <MASS>
472.470

> <MONOISOTOPIC_MASS>
471.95926

> <CHARGE>
0

> <SMILES>
C12=C3C4=CC=C1C(=CC(=C2C=CC3=C(C=C4S(=O)(O)=O)S(=O)(O)=O)OC)S(=O)(O)=O

> <INCHI>
InChI=1S/C17H12O10S3/c1-27-12-6-13(28(18,19)20)9-4-5-11-15(30(24,25)26)7-14(29(21,22)23)10-3-2-8(12)16(9)17(10)11/h2-7H,1H3,(H,18,19,20)(H,21,22,23)(H,24,25,26)

> <INCHIKEY>
CTERCLHSWSQHSD-UHFFFAOYSA-N

> <REAXYS_REGISTRY_NUMBER>
9093934

> <PDBECHEM_ACCESSION>
2M9

> <PUBMED_CITATION>
25756188

$$$$

Mrv0541 04081517552D          

 40 42  0  0  0  0            999 V2000
    2.3441   -1.6555    0.0000 C   0  0  1  0  0  0  0  0  0  0  0  0
    2.3441   -2.4806    0.0000 C   0  0  1  0  0  0  0  0  0  0  0  0
    1.6295   -1.2430    0.0000 O   0  0  0  0  0  0  0  0  0  0  0  0
    1.6295   -2.8931    0.0000 C   0  0  2  0  0  0  0  0  0  0  0  0
    0.9151   -1.6555    0.0000 C   0  0  1  0  0  0  0  0  0  0  0  0
    0.9151   -2.4806    0.0000 C   0  0  2  0  0  0  0  0  0  0  0  0
    3.0585   -1.2430    0.0000 O   0  0  0  0  0  0  0  0  0  0  0  0
    3.0585   -2.8931    0.0000 O   0  0  0  0  0  0  0  0  0  0  0  0
    1.6295   -3.7180    0.0000 O   0  0  0  0  0  0  0  0  0  0  0  0
    0.2006   -2.8931    0.0000 O   0  0  0  0  0  0  0  0  0  0  0  0
    0.2006   -1.2430    0.0000 C   0  0  0  0  0  0  0  0  0  0  0  0
   -0.5138   -1.6555    0.0000 O   0  0  0  0  0  0  0  0  0  0  0  0
    5.2019   -0.0055    0.0000 C   0  0  1  0  0  0  0  0  0  0  0  0
    5.2019   -0.8306    0.0000 C   0  0  1  0  0  0  0  0  0  0  0  0
    4.4874    0.4070    0.0000 O   0  0  0  0  0  0  0  0  0  0  0  0
    4.4874   -1.2430    0.0000 C   0  0  2  0  0  0  0  0  0  0  0  0
    3.7730   -0.0055    0.0000 C   0  0  1  0  0  0  0  0  0  0  0  0
    3.7730   -0.8306    0.0000 C   0  0  1  0  0  0  0  0  0  0  0  0
    5.9163    0.4070    0.0000 O   0  0  0  0  0  0  0  0  0  0  0  0
    5.9163   -1.2430    0.0000 N   0  0  0  0  0  0  0  0  0  0  0  0
    4.4874   -2.0679    0.0000 O   0  0  0  0  0  0  0  0  0  0  0  0
    3.0585    0.4069    0.0000 C   0  0  0  0  0  0  0  0  0  0  0  0
    2.3441   -0.0056    0.0000 O   0  0  0  0  0  0  0  0  0  0  0  0
    5.9163   -2.0681    0.0000 C   0  0  0  0  0  0  0  0  0  0  0  0
    6.6307   -2.4806    0.0000 C   0  0  0  0  0  0  0  0  0  0  0  0
    5.2019   -2.4804    0.0000 O   0  0  0  0  0  0  0  0  0  0  0  0
    8.0597   -1.6555    0.0000 O   0  0  0  0  0  0  0  0  0  0  0  0
    8.7743    0.4070    0.0000 C   0  0  0  0  0  0  0  0  0  0  0  0
    8.7743   -0.4180    0.0000 C   0  0  1  0  0  0  0  0  0  0  0  0
    8.0597    0.8195    0.0000 O   0  0  0  0  0  0  0  0  0  0  0  0
    8.0597   -0.8305    0.0000 C   0  0  2  0  0  0  0  0  0  0  0  0
    7.3453    0.4070    0.0000 C   0  0  1  0  0  0  0  0  0  0  0  0
    7.3453   -0.4180    0.0000 C   0  0  2  0  0  0  0  0  0  0  0  0
    9.4887    0.8195    0.0000 O   0  0  0  0  0  0  0  0  0  0  0  0
    9.4887   -0.8305    0.0000 N   0  0  0  0  0  0  0  0  0  0  0  0
    6.6309   -0.8305    0.0000 O   0  0  0  0  0  0  0  0  0  0  0  0
    6.6309    0.8195    0.0000 C   0  0  0  0  0  0  0  0  0  0  0  0
    9.4887   -1.6555    0.0000 C   0  0  0  0  0  0  0  0  0  0  0  0
    8.7742   -2.0680    0.0000 O   0  0  0  0  0  0  0  0  0  0  0  0
   10.2032   -2.0680    0.0000 C   0  0  0  0  0  0  0  0  0  0  0  0
  1  2  1  0  0  0  0
  1  3  1  0  0  0  0
  2  4  1  0  0  0  0
  3  5  1  0  0  0  0
  4  6  1  0  0  0  0
  5  6  1  0  0  0  0
  1  7  1  1  0  0  0
  2  8  1  6  0  0  0
  4  9  1  1  0  0  0
  6 10  1  1  0  0  0
  5 11  1  1  0  0  0
 12 11  1  0  0  0  0
 13 14  1  0  0  0  0
 13 15  1  0  0  0  0
 14 16  1  0  0  0  0
 15 17  1  0  0  0  0
 16 18  1  0  0  0  0
 17 18  1  0  0  0  0
 13 19  1  1  0  0  0
 14 20  1  6  0  0  0
 16 21  1  1  0  0  0
 18  7  1  6  0  0  0
 17 22  1  1  0  0  0
 23 22  1  0  0  0  0
 20 24  1  0  0  0  0
 24 25  1  0  0  0  0
 24 26  2  0  0  0  0
 28 29  1  0  0  0  0
 28 30  1  0  0  0  0
 29 31  1  0  0  0  0
 30 32  1  0  0  0  0
 31 33  1  0  0  0  0
 32 33  1  0  0  0  0
 28 34  1  0  0  0  0
 29 35  1  6  0  0  0
 31 27  1  1  0  0  0
 33 36  1  1  0  0  0
 32 37  1  1  0  0  0
 19 37  1  0  0  0  0
 35 38  1  0  0  0  0
 38 39  2  0  0  0  0
 38 40  1  0  0  0  0
M  END
> <ID>
CHEBI:85406

> <NAME>
beta-D-Galp-(1->4)-beta-D-GlcpNAc-(1->6)-D-GalpNAc

> <DEFINITION>
An amino trisaccharide comprised of a linear sequence of β-D-galactose, N-acetyl-β-D-glucosamine and N-acetyl-D-galactosamine linked (1→4) and (1→6).

> <STAR>
3

> <SYNONYM>
Galbeta1-4GlcNAcbeta1-6GalNAc; Galb1-4GlcNAcb1-6GalNAc; beta-D-galactosyl-(1->4)-N-acetyl-beta-D-glucosaminyl-(1->6)-N-acetyl-D-galactosamine; beta-D-Gal-(1->4)-beta-D-GlcNAc-(1->6)-D-GalNAc

> <IUPAC_NAME>
beta-D-galactopyranosyl-(1->4)-2-acetamido-2-deoxy-beta-D-glucopyranosyl-(1->6)-2-acetamido-2-deoxy-D-galactopyranose

> <FORMULA>
C22H38N2O16

> <MASS>
586.54090

> <MONOISOTOPIC_MASS>
586.22213

> <CHARGE>
0

> <SMILES>
CC(=O)N[C@H]1C(O)O[C@H](CO[C@@H]2O[C@H](CO)[C@@H](O[C@@H]3O[C@H](CO)[C@H](O)[C@H](O)[C@H]3O)[C@H](O)[C@H]2NC(C)=O)[C@H](O)[C@@H]1O

> <INCHI>
InChI=1S/C22H38N2O16/c1-6(27)23-11-15(31)14(30)10(37-20(11)35)5-36-21-12(24-7(2)28)16(32)19(9(4-26)39-21)40-22-18(34)17(33)13(29)8(3-25)38-22/h8-22,25-26,29-35H,3-5H2,1-2H3,(H,23,27)(H,24,28)/t8-,9-,10-,11-,12-,13+,14+,15-,16-,17+,18-,19-,20?,21-,22+/m1/s1

> <INCHIKEY>
UOSDMMIGEKZXMK-OLVZTKNUSA-N

> <PUBMED_CITATION>
25568069; 31537530

$$$$

Mrv0541 04151516192D          

 45 48  0  0  0  0            999 V2000
   19.6511   -4.1981    0.0000 O   0  0  0  0  0  0  0  0  0  0  0  0
   21.7946   -2.9606    0.0000 C   0  0  2  0  0  0  0  0  0  0  0  0
   21.7946   -3.7856    0.0000 C   0  0  1  0  0  0  0  0  0  0  0  0
   21.0800   -2.5481    0.0000 O   0  0  0  0  0  0  0  0  0  0  0  0
   21.0800   -4.1981    0.0000 C   0  0  2  0  0  0  0  0  0  0  0  0
   20.3656   -2.9606    0.0000 C   0  0  1  0  0  0  0  0  0  0  0  0
   20.3656   -3.7856    0.0000 C   0  0  1  0  0  0  0  0  0  0  0  0
   22.5090   -2.5481    0.0000 O   0  0  0  0  0  0  0  0  0  0  0  0
   22.5090   -4.1981    0.0000 O   0  0  0  0  0  0  0  0  0  0  0  0
   21.0800   -5.0231    0.0000 O   0  0  0  0  0  0  0  0  0  0  0  0
   19.6511   -2.5481    0.0000 C   0  0  0  0  0  0  0  0  0  0  0  0
   18.9368   -2.9606    0.0000 O   0  0  0  0  0  0  0  0  0  0  0  0
   24.6523   -1.3107    0.0000 C   0  0  2  0  0  0  0  0  0  0  0  0
   24.6523   -2.1357    0.0000 C   0  0  1  0  0  0  0  0  0  0  0  0
   23.9379   -0.8981    0.0000 O   0  0  0  0  0  0  0  0  0  0  0  0
   23.9379   -2.5481    0.0000 C   0  0  2  0  0  0  0  0  0  0  0  0
   23.2234   -1.3107    0.0000 C   0  0  1  0  0  0  0  0  0  0  0  0
   23.2234   -2.1357    0.0000 C   0  0  1  0  0  0  0  0  0  0  0  0
   25.3668   -0.8981    0.0000 O   0  0  0  0  0  0  0  0  0  0  0  0
   25.3668   -2.5481    0.0000 O   0  0  0  0  0  0  0  0  0  0  0  0
   23.9379   -3.3731    0.0000 O   0  0  0  0  0  0  0  0  0  0  0  0
   22.5090   -0.8981    0.0000 C   0  0  0  0  0  0  0  0  0  0  0  0
   21.7944   -1.3107    0.0000 O   0  0  0  0  0  0  0  0  0  0  0  0
   27.5101    0.3393    0.0000 C   0  0  2  0  0  0  0  0  0  0  0  0
   27.5101   -0.4856    0.0000 C   0  0  1  0  0  0  0  0  0  0  0  0
   26.7957    0.7518    0.0000 O   0  0  0  0  0  0  0  0  0  0  0  0
   26.7957   -0.8981    0.0000 C   0  0  2  0  0  0  0  0  0  0  0  0
   26.0813    0.3393    0.0000 C   0  0  1  0  0  0  0  0  0  0  0  0
   26.0813   -0.4856    0.0000 C   0  0  1  0  0  0  0  0  0  0  0  0
   28.2246    0.7518    0.0000 O   0  0  0  0  0  0  0  0  0  0  0  0
   28.2246   -0.8981    0.0000 O   0  0  0  0  0  0  0  0  0  0  0  0
   26.7957   -1.7232    0.0000 O   0  0  0  0  0  0  0  0  0  0  0  0
   25.3668    0.7518    0.0000 C   0  0  0  0  0  0  0  0  0  0  0  0
   24.6523    0.3393    0.0000 O   0  0  0  0  0  0  0  0  0  0  0  0
   18.2224   -3.3731    0.0000 C   0  0  2  0  0  0  0  0  0  0  0  0
   18.2224   -4.1981    0.0000 C   0  0  1  0  0  0  0  0  0  0  0  0
   17.5078   -2.9606    0.0000 O   0  0  0  0  0  0  0  0  0  0  0  0
   17.5078   -4.6106    0.0000 C   0  0  2  0  0  0  0  0  0  0  0  0
   16.7934   -3.3731    0.0000 C   0  0  1  0  0  0  0  0  0  0  0  0
   16.7934   -4.1981    0.0000 C   0  0  1  0  0  0  0  0  0  0  0  0
   18.9368   -4.6106    0.0000 O   0  0  0  0  0  0  0  0  0  0  0  0
   17.5078   -5.4356    0.0000 O   0  0  0  0  0  0  0  0  0  0  0  0
   16.0789   -4.6106    0.0000 O   0  0  0  0  0  0  0  0  0  0  0  0
   16.0789   -2.9606    0.0000 C   0  0  0  0  0  0  0  0  0  0  0  0
   15.3645   -3.3731    0.0000 O   0  0  0  0  0  0  0  0  0  0  0  0
  2  3  1  0  0  0  0
  2  4  1  0  0  0  0
  3  5  1  0  0  0  0
  4  6  1  0  0  0  0
  5  7  1  0  0  0  0
  6  7  1  0  0  0  0
  2  8  1  6  0  0  0
  3  9  1  6  0  0  0
  5 10  1  1  0  0  0
  7  1  1  6  0  0  0
  6 11  1  1  0  0  0
 12 11  1  0  0  0  0
 13 14  1  0  0  0  0
 13 15  1  0  0  0  0
 14 16  1  0  0  0  0
 15 17  1  0  0  0  0
 16 18  1  0  0  0  0
 17 18  1  0  0  0  0
 13 19  1  6  0  0  0
 14 20  1  6  0  0  0
 16 21  1  1  0  0  0
 18  8  1  6  0  0  0
 17 22  1  1  0  0  0
 23 22  1  0  0  0  0
 24 25  1  0  0  0  0
 24 26  1  0  0  0  0
 25 27  1  0  0  0  0
 26 28  1  0  0  0  0
 27 29  1  0  0  0  0
 28 29  1  0  0  0  0
 24 30  1  6  0  0  0
 25 31  1  6  0  0  0
 27 32  1  1  0  0  0
 29 19  1  6  0  0  0
 28 33  1  1  0  0  0
 34 33  1  0  0  0  0
 35 36  1  0  0  0  0
 35 37  1  0  0  0  0
 36 38  1  0  0  0  0
 37 39  1  0  0  0  0
 38 40  1  0  0  0  0
 39 40  1  0  0  0  0
 35 12  1  6  0  0  0
 36 41  1  6  0  0  0
 38 42  1  1  0  0  0
 40 43  1  6  0  0  0
 39 44  1  1  0  0  0
 45 44  1  0  0  0  0
M  END
> <ID>
CHEBI:85436

> <NAME>
alpha-D-Glcp-(1->6)-alpha-D-Glcp-(1->4)-alpha-D-Glcp-(1->4)-alpha-D-Glcp

> <DEFINITION>
A glucotetrose consisting of α-maltotriose with a further α-D-glucose unit linked to O-6 of the glucose residue at the non-reducing end.

> <STAR>
3

> <SYNONYM>
alpha-isomaltosyl-(1->4)-maltose; alpha-D-glucosyl-(1->6)-alpha-D-glucosyl-(1->4)-alpha-D-glucosyl-(1->4)-alpha-D-glucose; alpha-D-Glcp-(1->6)-alpha-D-Glcp-(1->4)-alpha-D-Glcp-(1->4)-alpha-D-Glcp; alpha-D-Glc-(1->6)-alpha-D-Glc-(1->4)-alpha-D-Glc-(1->4)-alpha-D-Glc; 6(3)-alpha-D-glucosylmaltotriose; 6(3)-O-alpha-glucosylmaltotriose

> <IUPAC_NAME>
alpha-D-glucopyranosyl-(1->6)-alpha-D-glucopyranosyl-(1->4)-alpha-D-glucopyranosyl-(1->4)-alpha-D-glucopyranose

> <FORMULA>
C24H42O21

> <MASS>
666.57770

> <MONOISOTOPIC_MASS>
666.22186

> <CHARGE>
0

> <SMILES>
OC[C@H]1O[C@H](OC[C@H]2O[C@H](O[C@H]3[C@H](O)[C@@H](O)[C@@H](O[C@H]4[C@H](O)[C@@H](O)[C@@H](O)O[C@@H]4CO)O[C@@H]3CO)[C@H](O)[C@@H](O)[C@@H]2O)[C@H](O)[C@@H](O)[C@@H]1O

> <INCHI>
InChI=1S/C24H42O21/c25-1-5-9(28)11(30)16(35)22(41-5)39-4-8-10(29)12(31)17(36)23(43-8)45-20-7(3-27)42-24(18(37)14(20)33)44-19-6(2-26)40-21(38)15(34)13(19)32/h5-38H,1-4H2/t5-,6-,7-,8-,9-,10-,11+,12+,13-,14-,15-,16-,17-,18-,19-,20-,21+,22+,23-,24-/m1/s1

> <INCHIKEY>
FPBCRLIOSBQLHS-UJDJLXLFSA-N

> <REAXYS_REGISTRY_NUMBER>
5205048

> <PUBMED_CITATION>
12400677; 25766777

$$$$

Ketcher 05191515302D 1   1.00000     0.00000     0

 37 39  0     1  0            999 V2000
   19.4797  -44.7227    0.0000 C   0  0  0  0  0  0  0  0  0  0  0  0
   19.4797  -45.7227    0.0000 C   0  0  0  0  0  0  0  0  0  0  0  0
   18.6136  -44.2227    0.0000 O   0  0  0  0  0  0  0  0  0  0  0  0
   18.6136  -46.2227    0.0000 C   0  0  0  0  0  0  0  0  0  0  0  0
   17.7476  -44.7227    0.0000 C   0  0  0  0  0  0  0  0  0  0  0  0
   17.7476  -45.7227    0.0000 C   0  0  0  0  0  0  0  0  0  0  0  0
   20.3457  -44.2227    0.0000 O   0  0  0  0  0  0  0  0  0  0  0  0
   20.3457  -46.2227    0.0000 O   0  0  0  0  0  0  0  0  0  0  0  0
   18.6136  -47.2227    0.0000 O   0  0  0  0  0  0  0  0  0  0  0  0
   16.8816  -46.2226    0.0000 O   0  0  0  0  0  0  0  0  0  0  0  0
   16.8816  -44.2227    0.0000 C   0  0  0  0  0  0  0  0  0  0  0  0
   16.0156  -44.7227    0.0000 O   0  0  0  0  0  0  0  0  0  0  0  0
   20.3456  -51.2227    0.0000 C   0  0  0  0  0  0  0  0  0  0  0  0
   21.2116  -51.7227    0.0000 C   0  0  0  0  0  0  0  0  0  0  0  0
   19.4796  -51.7227    0.0000 O   0  0  0  0  0  0  0  0  0  0  0  0
   21.2116  -52.7228    0.0000 C   0  0  0  0  0  0  0  0  0  0  0  0
   19.4796  -52.7227    0.0000 C   0  0  0  0  0  0  0  0  0  0  0  0
   20.3456  -53.2227    0.0000 C   0  0  0  0  0  0  0  0  0  0  0  0
   20.3456  -50.2227    0.0000 O   0  0  0  0  0  0  0  0  0  0  0  0
   22.0777  -51.2228    0.0000 O   0  0  0  0  0  0  0  0  0  0  0  0
   22.0776  -53.2228    0.0000 O   0  0  0  0  0  0  0  0  0  0  0  0
   20.3455  -54.2227    0.0000 O   0  0  0  0  0  0  0  0  0  0  0  0
   18.6135  -53.2227    0.0000 C   0  0  0  0  0  0  0  0  0  0  0  0
   18.6135  -54.2227    0.0000 O   0  0  0  0  0  0  0  0  0  0  0  0
   20.3457  -47.2227    0.0000 C   0  0  0  0  0  0  0  0  0  0  0  0
   21.2117  -47.7227    0.0000 C   0  0  0  0  0  0  0  0  0  0  0  0
   19.4797  -47.7227    0.0000 O   0  0  0  0  0  0  0  0  0  0  0  0
   21.2117  -48.7228    0.0000 C   0  0  0  0  0  0  0  0  0  0  0  0
   19.4796  -48.7227    0.0000 C   0  0  0  0  0  0  0  0  0  0  0  0
   20.3457  -49.2227    0.0000 C   0  0  0  0  0  0  0  0  0  0  0  0
   22.0777  -47.2227    0.0000 N   0  0  0  0  0  0  0  0  0  0  0  0
   22.0776  -49.2228    0.0000 O   0  0  0  0  0  0  0  0  0  0  0  0
   18.6136  -49.2227    0.0000 C   0  0  0  0  0  0  0  0  0  0  0  0
   18.6136  -50.2227    0.0000 O   0  0  0  0  0  0  0  0  0  0  0  0
   22.9437  -47.7228    0.0000 C   0  0  0  0  0  0  0  0  0  0  0  0
   23.8098  -47.2228    0.0000 O   0  0  0  0  0  0  0  0  0  0  0  0
   22.9437  -48.7228    0.0000 C   0  0  0  0  0  0  0  0  0  0  0  0
  1  2  1  0     0  0
  1  3  1  0     0  0
  2  4  1  0     0  0
  3  5  1  0     0  0
  4  6  1  0     0  0
  5  6  1  0     0  0
  1  7  1  6     0  0
  2  8  1  1     0  0
  4  9  1  1     0  0
  6 10  1  6     0  0
  5 11  1  1     0  0
 12 11  1  0     0  0
 13 14  1  0     0  0
 13 15  1  0     0  0
 14 16  1  0     0  0
 15 17  1  0     0  0
 16 18  1  0     0  0
 17 18  1  0     0  0
 13 19  1  1     0  0
 14 20  1  6     0  0
 16 21  1  1     0  0
 18 22  1  1     0  0
 17 23  1  1     0  0
 24 23  1  0     0  0
 25 26  1  0     0  0
 25 27  1  0     0  0
 26 28  1  0     0  0
 27 29  1  0     0  0
 28 30  1  0     0  0
 29 30  1  0     0  0
 25  8  1  1     0  0
 26 31  1  6     0  0
 28 32  1  1     0  0
 30 19  1  6     0  0
 29 33  1  1     0  0
 34 33  1  0     0  0
 36 35  2  0     0  0
 37 35  1  0     0  0
 31 35  1  0     0  0
M  END
> <ID>
CHEBI:85792

> <NAME>
beta-D-Galp-(1->4)-beta-D-GlcpNAc-(1->2)-alpha-D-Manp

> <DEFINITION>
An amino trisaccharide comprising β-D-galactose, N-acetyl-β-D-glucosamine and α-D-mannose residues linked sequentially (1→4) and (1→2).

> <STAR>
3

> <SYNONYM>
O-beta-D-galactopyranosyl-(1->4)-O-2-acetamido-2-deoxy-beta-D-glucopyranosyl-(1->2)-alpha-D-mannopyranose; Galbeta1-4GlcNAcbeta1-2Manalpha; Galb1-4GlcNAcb1-2Mana; beta-D-galactosyl-(1->4)-N-acetyl-beta-D-glucosaminyl-(1->2)-alpha-D-mannose

> <IUPAC_NAME>
beta-D-galactopyranosyl-(1->4)-2-acetamido-2-deoxy-beta-D-glucopyranosyl-(1->2)-alpha-D-mannopyranose

> <FORMULA>
C20H35NO16

> <MASS>
545.48900

> <MONOISOTOPIC_MASS>
545.19558

> <CHARGE>
0

> <SMILES>
CC(=O)N[C@@H]1[C@@H](O)[C@H](O[C@@H]2O[C@H](CO)[C@H](O)[C@H](O)[C@H]2O)[C@@H](CO)O[C@H]1O[C@@H]1[C@@H](O)O[C@H](CO)[C@@H](O)[C@@H]1O

> <INCHI>
InChI=1S/C20H35NO16/c1-5(25)21-9-12(28)16(36-20-15(31)13(29)10(26)7(3-23)34-20)8(4-24)35-19(9)37-17-14(30)11(27)6(2-22)33-18(17)32/h6-20,22-24,26-32H,2-4H2,1H3,(H,21,25)/t6-,7-,8-,9-,10+,11-,12-,13+,14+,15-,16-,17+,18+,19+,20+/m1/s1

> <INCHIKEY>
REVOVWCTUZRTEK-IXSWIARLSA-N

> <REAXYS_REGISTRY_NUMBER>
5194424

> <PUBMED_CITATION>
25568069

$$$$

Ketcher 05211516542D 1   1.00000     0.00000     0

 50 53  0     1  0            999 V2000
    9.3231   -6.3132    0.0000 C   0  0  0  0  0  0  0  0  0  0  0  0
    9.3231   -7.3132    0.0000 C   0  0  0  0  0  0  0  0  0  0  0  0
    8.4570   -5.8132    0.0000 O   0  0  0  0  0  0  0  0  0  0  0  0
    8.4570   -7.8132    0.0000 C   0  0  0  0  0  0  0  0  0  0  0  0
    7.5910   -6.3132    0.0000 C   0  0  0  0  0  0  0  0  0  0  0  0
    7.5910   -7.3132    0.0000 C   0  0  0  0  0  0  0  0  0  0  0  0
   10.1891   -5.8132    0.0000 O   0  0  0  0  0  0  0  0  0  0  0  0
   10.1891   -7.8132    0.0000 O   0  0  0  0  0  0  0  0  0  0  0  0
    8.4570   -8.8132    0.0000 O   0  0  0  0  0  0  0  0  0  0  0  0
    6.7250   -7.8132    0.0000 O   0  0  0  0  0  0  0  0  0  0  0  0
    6.7250   -5.8132    0.0000 C   0  0  0  0  0  0  0  0  0  0  0  0
    5.8590   -6.3133    0.0000 O   0  0  0  0  0  0  0  0  0  0  0  0
   12.7872   -4.3132    0.0000 C   0  0  0  0  0  0  0  0  0  0  0  0
   12.7872   -5.3132    0.0000 C   0  0  0  0  0  0  0  0  0  0  0  0
   11.9211   -3.8132    0.0000 O   0  0  0  0  0  0  0  0  0  0  0  0
   11.9211   -5.8132    0.0000 C   0  0  0  0  0  0  0  0  0  0  0  0
   11.0551   -4.3132    0.0000 C   0  0  0  0  0  0  0  0  0  0  0  0
   11.0551   -5.3132    0.0000 C   0  0  0  0  0  0  0  0  0  0  0  0
   13.6532   -3.8132    0.0000 O   0  0  0  0  0  0  0  0  0  0  0  0
   13.6532   -5.8132    0.0000 N   0  0  0  0  0  0  0  0  0  0  0  0
   11.9211   -6.8132    0.0000 O   0  0  0  0  0  0  0  0  0  0  0  0
   10.1891   -3.8132    0.0000 C   0  0  0  0  0  0  0  0  0  0  0  0
    9.3231   -4.3132    0.0000 O   0  0  0  0  0  0  0  0  0  0  0  0
   17.1173   -3.8132    0.0000 C   0  0  0  0  0  0  0  0  0  0  0  0
   17.1173   -4.8132    0.0000 C   0  0  0  0  0  0  0  0  0  0  0  0
   16.2512   -3.3132    0.0000 O   0  0  0  0  0  0  0  0  0  0  0  0
   16.2512   -5.3132    0.0000 C   0  0  0  0  0  0  0  0  0  0  0  0
   15.3852   -3.8132    0.0000 C   0  0  0  0  0  0  0  0  0  0  0  0
   15.3852   -4.8132    0.0000 C   0  0  0  0  0  0  0  0  0  0  0  0
   17.9833   -3.3132    0.0000 O   0  0  0  0  0  0  0  0  0  0  0  0
   17.9833   -5.3132    0.0000 N   0  0  0  0  0  0  0  0  0  0  0  0
   16.2512   -6.3132    0.0000 O   0  0  0  0  0  0  0  0  0  0  0  0
   14.5192   -5.3132    0.0000 O   0  0  0  0  0  0  0  0  0  0  0  0
   14.5192   -3.3132    0.0000 C   0  0  0  0  0  0  0  0  0  0  0  0
   17.9833   -6.3132    0.0000 C   0  0  0  0  0  0  0  0  0  0  0  0
   18.8493   -6.8132    0.0000 C   0  0  0  0  0  0  0  0  0  0  0  0
   17.1172   -6.8132    0.0000 O   0  0  0  0  0  0  0  0  0  0  0  0
   13.6532   -6.8132    0.0000 C   0  0  0  0  0  0  0  0  0  0  0  0
   14.5192   -7.3133    0.0000 C   0  0  0  0  0  0  0  0  0  0  0  0
   12.7871   -7.3132    0.0000 O   0  0  0  0  0  0  0  0  0  0  0  0
   10.1891   -8.8132    0.0000 C   0  0  0  0  0  0  0  0  0  0  0  0
   11.0551   -9.3132    0.0000 C   0  0  0  0  0  0  0  0  0  0  0  0
    9.3230   -9.3132    0.0000 O   0  0  0  0  0  0  0  0  0  0  0  0
   11.0550  -10.3132    0.0000 C   0  0  0  0  0  0  0  0  0  0  0  0
    9.3230  -10.3132    0.0000 C   0  0  0  0  0  0  0  0  0  0  0  0
   10.1890  -10.8132    0.0000 C   0  0  0  0  0  0  0  0  0  0  0  0
   11.9211   -8.8132    0.0000 O   0  0  0  0  0  0  0  0  0  0  0  0
   11.9210  -10.8133    0.0000 O   0  0  0  0  0  0  0  0  0  0  0  0
   10.1890  -11.8132    0.0000 O   0  0  0  0  0  0  0  0  0  0  0  0
    8.4570  -10.8132    0.0000 C   0  0  0  0  0  0  0  0  0  0  0  0
  1  2  1  0     0  0
  1  3  1  0     0  0
  2  4  1  0     0  0
  3  5  1  0     0  0
  4  6  1  0     0  0
  5  6  1  0     0  0
  1  7  1  1     0  0
  2  8  1  6     0  0
  4  9  1  1     0  0
  6 10  1  1     0  0
  5 11  1  1     0  0
 12 11  1  0     0  0
 13 14  1  0     0  0
 13 15  1  0     0  0
 14 16  1  0     0  0
 15 17  1  0     0  0
 16 18  1  0     0  0
 17 18  1  0     0  0
 13 19  1  1     0  0
 14 20  1  6     0  0
 16 21  1  1     0  0
 18  7  1  6     0  0
 17 22  1  1     0  0
 23 22  1  0     0  0
 24 25  1  0     0  0
 24 26  1  0     0  0
 25 27  1  0     0  0
 26 28  1  0     0  0
 27 29  1  0     0  0
 28 29  1  0     0  0
 24 30  1  6     0  0
 25 31  1  6     0  0
 27 32  1  1     0  0
 29 33  1  1     0  0
 28 34  1  1     0  0
 19 34  1  0     0  0
 36 35  1  0     0  0
 37 35  2  0     0  0
 31 35  1  0     0  0
 39 38  1  0     0  0
 40 38  2  0     0  0
 20 38  1  0     0  0
 41 42  1  0     0  0
 41 43  1  0     0  0
 42 44  1  0     0  0
 43 45  1  0     0  0
 44 46  1  0     0  0
 45 46  1  0     0  0
 41  8  1  1     0  0
 42 47  1  1     0  0
 44 48  1  6     0  0
 46 49  1  6     0  0
 45 50  1  6     0  0
M  END
> <ID>
CHEBI:85831

> <NAME>
alpha-L-Fucp-(1->2)-beta-D-Galp-(1->4)-beta-D-GlcpNAc-(1->6)-alpha-D-GalpNAcp

> <DEFINITION>
A linear amino tetrasaccharide comprising α-L-fucose, β-D-galactose, N-acetyl-β-D-glucose and N-acetyl-α-glucose residues linked sequentially (1→2), (1→4) and (1→6).

> <STAR>
3

> <SYNONYM>
Fucalpha1-2Galbeta1-4GlcNAcbeta1-6GalNAcalpha; Fuca1-2Galb1-4GlcNAcb1-6GalNAca; alpha-L-fucosyl-(1->2)-beta-D-galactosyl-(1->4)-N-acetyl-beta-D-glucosaminyl-(1->6)-N-acetyl-alpha-D-galactosamine

> <IUPAC_NAME>
alpha-L-fucopyranosyl-(1->2)-beta-D-galactopyranosyl-(1->4)-2-acetamido-2-deoxy-beta-D-glucopyranosyl-(1->6)-2-acetamido-2-deoxy-alpha-D-galactopyranose; 6-deoxy-alpha-L-galactopyranosyl-(1->2)-beta-D-galactopyranosyl-(1->4)-2-acetamido-2-deoxy-beta-D-glucopyranosyl-(1->6)-2-acetamido-2-deoxy-alpha-D-galactopyranose

> <FORMULA>
C28H48N2O20

> <MASS>
732.68210

> <MONOISOTOPIC_MASS>
732.28004

> <CHARGE>
0

> <SMILES>
C[C@@H]1O[C@@H](O[C@@H]2[C@@H](O)[C@@H](O)[C@@H](CO)O[C@H]2O[C@H]2[C@H](O)[C@@H](NC(C)=O)[C@H](OC[C@H]3O[C@H](O)[C@H](NC(C)=O)[C@@H](O)[C@H]3O)O[C@@H]2CO)[C@@H](O)[C@H](O)[C@@H]1O

> <INCHI>
InChI=1S/C28H48N2O20/c1-7-15(35)20(40)22(42)27(45-7)50-24-21(41)16(36)10(4-31)47-28(24)49-23-11(5-32)48-26(14(19(23)39)30-9(3)34)44-6-12-17(37)18(38)13(25(43)46-12)29-8(2)33/h7,10-28,31-32,35-43H,4-6H2,1-3H3,(H,29,33)(H,30,34)/t7-,10+,11+,12+,13+,14+,15+,16-,17-,18+,19+,20+,21-,22-,23+,24+,25-,26+,27-,28-/m0/s1

> <INCHIKEY>
RPFWYCRETRUYEB-LWFOKAOISA-N

> <PUBMED_CITATION>
25568069

$$$$

Ketcher 05261510542D 1   1.00000     0.00000     0

 44 46  0     1  0            999 V2000
   35.6227   -7.2228    0.0000 O   0  0  0  0  0  0  0  0  0  0  0  0
   38.2208   -5.7228    0.0000 C   0  0  0  0  0  0  0  0  0  0  0  0
   38.2208   -6.7228    0.0000 C   0  0  0  0  0  0  0  0  0  0  0  0
   37.3547   -5.2228    0.0000 O   0  0  0  0  0  0  0  0  0  0  0  0
   37.3547   -7.2228    0.0000 C   0  0  0  0  0  0  0  0  0  0  0  0
   36.4887   -5.7228    0.0000 C   0  0  0  0  0  0  0  0  0  0  0  0
   36.4887   -6.7228    0.0000 C   0  0  0  0  0  0  0  0  0  0  0  0
   39.0868   -5.2228    0.0000 O   0  0  0  0  0  0  0  0  0  0  0  0
   39.0868   -7.2229    0.0000 N   0  0  0  0  0  0  0  0  0  0  0  0
   37.3547   -8.2228    0.0000 O   0  0  0  0  0  0  0  0  0  0  0  0
   35.6227   -5.2229    0.0000 C   0  0  0  0  0  0  0  0  0  0  0  0
   34.7567   -5.7229    0.0000 O   0  0  0  0  0  0  0  0  0  0  0  0
   39.0868   -8.2229    0.0000 C   0  0  0  0  0  0  0  0  0  0  0  0
   39.9528   -8.7229    0.0000 C   0  0  0  0  0  0  0  0  0  0  0  0
   38.2208   -8.7229    0.0000 O   0  0  0  0  0  0  0  0  0  0  0  0
   33.8906   -5.2229    0.0000 S   0  0  0  0  0  0  0  0  0  0  0  0
   33.3906   -6.0889    0.0000 O   0  0  0  0  0  0  0  0  0  0  0  0
   34.3906   -4.3568    0.0000 O   0  0  0  0  0  0  0  0  0  0  0  0
   33.0246   -4.7229    0.0000 O   0  0  0  0  0  0  0  0  0  0  0  0
   36.4887   -8.7229    0.0000 C   0  0  0  0  0  0  0  0  0  0  0  0
   36.4887   -9.7229    0.0000 C   0  0  0  0  0  0  0  0  0  0  0  0
   35.6226   -8.2229    0.0000 O   0  0  0  0  0  0  0  0  0  0  0  0
   35.6226  -10.2229    0.0000 C   0  0  0  0  0  0  0  0  0  0  0  0
   34.7566   -8.7229    0.0000 C   0  0  0  0  0  0  0  0  0  0  0  0
   34.7566   -9.7229    0.0000 C   0  0  0  0  0  0  0  0  0  0  0  0
   37.3547  -10.2229    0.0000 O   0  0  0  0  0  0  0  0  0  0  0  0
   35.6226  -11.2229    0.0000 O   0  0  0  0  0  0  0  0  0  0  0  0
   33.8906  -10.2229    0.0000 O   0  0  0  0  0  0  0  0  0  0  0  0
   33.8906   -8.2229    0.0000 C   0  0  0  0  0  0  0  0  0  0  0  0
   33.0245   -8.7229    0.0000 O   0  0  0  0  0  0  0  0  0  0  0  0
   37.3547  -11.2229    0.0000 C   0  0  0  0  0  0  0  0  0  0  0  0
   38.2207  -11.7229    0.0000 C   0  0  0  0  0  0  0  0  0  0  0  0
   36.4887  -11.7229    0.0000 O   0  0  0  0  0  0  0  0  0  0  0  0
   38.2207  -12.7230    0.0000 C   0  0  0  0  0  0  0  0  0  0  0  0
   36.4887  -12.7229    0.0000 C   0  0  0  0  0  0  0  0  0  0  0  0
   37.3547  -13.2229    0.0000 C   0  0  0  0  0  0  0  0  0  0  0  0
   39.0868  -11.2229    0.0000 O   0  0  0  0  0  0  0  0  0  0  0  0
   39.0867  -13.2230    0.0000 O   0  0  0  0  0  0  0  0  0  0  0  0
   37.3546  -14.2229    0.0000 O   0  0  0  0  0  0  0  0  0  0  0  0
   35.6226  -13.2229    0.0000 C   0  0  0  0  0  0  0  0  0  0  0  0
   32.1585   -8.2229    0.0000 S   0  0  0  0  0  0  0  0  0  0  0  0
   31.6585   -9.0889    0.0000 O   0  0  0  0  0  0  0  0  0  0  0  0
   32.6585   -7.3569    0.0000 O   0  0  0  0  0  0  0  0  0  0  0  0
   31.2925   -7.7229    0.0000 O   0  0  0  0  0  0  0  0  0  0  0  0
  2  3  1  0     0  0
  2  4  1  0     0  0
  3  5  1  0     0  0
  4  6  1  0     0  0
  5  7  1  0     0  0
  6  7  1  0     0  0
  2  8  1  1     0  0
  3  9  1  6     0  0
  5 10  1  1     0  0
  7  1  1  6     0  0
  6 11  1  1     0  0
 12 11  1  0     0  0
 14 13  1  0     0  0
 15 13  2  0     0  0
  9 13  1  0     0  0
 17 16  2  0     0  0
 18 16  2  0     0  0
 19 16  1  0     0  0
 12 16  1  0     0  0
 20 21  1  0     0  0
 20 22  1  0     0  0
 21 23  1  0     0  0
 22 24  1  0     0  0
 23 25  1  0     0  0
 24 25  1  0     0  0
 20 10  1  1     0  0
 21 26  1  6     0  0
 23 27  1  1     0  0
 25 28  1  1     0  0
 24 29  1  1     0  0
 30 29  1  0     0  0
 31 32  1  0     0  0
 31 33  1  0     0  0
 32 34  1  0     0  0
 33 35  1  0     0  0
 34 36  1  0     0  0
 35 36  1  0     0  0
 31 26  1  1     0  0
 32 37  1  1     0  0
 34 38  1  6     0  0
 36 39  1  6     0  0
 35 40  1  6     0  0
 42 41  2  0     0  0
 43 41  2  0     0  0
 44 41  1  0     0  0
 30 41  1  0     0  0
M  END
> <ID>
CHEBI:85872

> <NAME>
alpha-L-Fucp-(1->2)-beta-D-Galp6S-(1->3)-beta-D-GlcpNAc6S

> <DEFINITION>
A linear amino trisaccharide comprising α-L-fucose, 6-O-sulfo-β-D-galactose and N-acetyl-6-O-sulfo-β-D-glucosamine residues linked sequentially (1→2) and (1→3).

> <STAR>
3

> <SYNONYM>
Fucalpha1-2(6S)Galbeta1-3(6S)GlcNAcbeta; Fuca1-2(6S)Galb1-3(6S)GlcNAcb; alpha-L-fucosyl-(1->2)-6-O-sulfo-beta-D-galactosyl-(1->3)-N-acetyl-6-O-sulfo-beta-D-glucosamine

> <IUPAC_NAME>
alpha-L-fucopyranosyl-(1->2)-6-O-sulfo-beta-D-galactopyranosyl-(1->3)-2-acetamido-2-deoxy-6-O-sulfo-beta-D-glucopyranose; 6-deoxy-alpha-L-galactopyranosyl-(1->2)-6-O-sulfo-beta-D-galactopyranosyl-(1->3)-2-acetamido-2-deoxy-6-O-sulfo-beta-D-glucopyranose

> <FORMULA>
C20H35NO21S2

> <MASS>
689.61600

> <MONOISOTOPIC_MASS>
689.11430

> <CHARGE>
0

> <SMILES>
C[C@@H]1O[C@@H](O[C@@H]2[C@@H](O)[C@@H](O)[C@@H](COS(O)(=O)=O)O[C@H]2O[C@H]2[C@H](O)[C@@H](COS(O)(=O)=O)O[C@@H](O)[C@@H]2NC(C)=O)[C@@H](O)[C@H](O)[C@@H]1O

> <INCHI>
InChI=1S/C20H35NO21S2/c1-5-10(23)13(26)15(28)19(38-5)42-17-14(27)11(24)7(3-36-43(30,31)32)40-20(17)41-16-9(21-6(2)22)18(29)39-8(12(16)25)4-37-44(33,34)35/h5,7-20,23-29H,3-4H2,1-2H3,(H,21,22)(H,30,31,32)(H,33,34,35)/t5-,7+,8+,9+,10+,11-,12+,13+,14-,15-,16+,17+,18+,19-,20-/m0/s1

> <INCHIKEY>
ZMLAKOICVIZFDJ-QVPNGJTFSA-N

> <PUBMED_CITATION>
25568069

$$$$

Ketcher 05261511352D 1   1.00000     0.00000     0

 33 34  0     1  0            999 V2000
    9.5040  -22.9157    0.0000 C   0  0  0  0  0  0  0  0  0  0  0  0
    9.5040  -23.9157    0.0000 C   0  0  0  0  0  0  0  0  0  0  0  0
    8.6378  -22.4157    0.0000 O   0  0  0  0  0  0  0  0  0  0  0  0
    8.6378  -24.4157    0.0000 C   0  0  0  0  0  0  0  0  0  0  0  0
    7.7718  -22.9157    0.0000 C   0  0  0  0  0  0  0  0  0  0  0  0
    7.7718  -23.9157    0.0000 C   0  0  0  0  0  0  0  0  0  0  0  0
   10.3700  -22.4157    0.0000 O   0  0  0  0  0  0  0  0  0  0  0  0
   10.3700  -24.4157    0.0000 N   0  0  0  0  0  0  0  0  0  0  0  0
    8.6377  -25.4157    0.0000 O   0  0  0  0  0  0  0  0  0  0  0  0
    6.9058  -24.4157    0.0000 O   0  0  0  0  0  0  0  0  0  0  0  0
    6.9058  -22.4157    0.0000 C   0  0  0  0  0  0  0  0  0  0  0  0
    6.0398  -22.9157    0.0000 O   0  0  0  0  0  0  0  0  0  0  0  0
   12.9680  -20.9157    0.0000 C   0  0  0  0  0  0  0  0  0  0  0  0
   12.9680  -21.9157    0.0000 C   0  0  0  0  0  0  0  0  0  0  0  0
   12.1020  -20.4157    0.0000 O   0  0  0  0  0  0  0  0  0  0  0  0
   12.1020  -22.4157    0.0000 C   0  0  0  0  0  0  0  0  0  0  0  0
   11.2360  -20.9157    0.0000 C   0  0  0  0  0  0  0  0  0  0  0  0
   11.2360  -21.9157    0.0000 C   0  0  0  0  0  0  0  0  0  0  0  0
   13.8340  -20.4157    0.0000 O   0  0  0  0  0  0  0  0  0  0  0  0
   13.8340  -22.4157    0.0000 N   0  0  0  0  0  0  0  0  0  0  0  0
   12.1019  -23.4157    0.0000 O   0  0  0  0  0  0  0  0  0  0  0  0
   10.3700  -20.4157    0.0000 C   0  0  0  0  0  0  0  0  0  0  0  0
    9.5039  -20.9157    0.0000 O   0  0  0  0  0  0  0  0  0  0  0  0
   13.8340  -23.4157    0.0000 C   0  0  0  0  0  0  0  0  0  0  0  0
   14.7001  -23.9157    0.0000 C   0  0  0  0  0  0  0  0  0  0  0  0
   12.9680  -23.9157    0.0000 O   0  0  0  0  0  0  0  0  0  0  0  0
    8.6378  -20.4157    0.0000 S   0  0  0  0  0  0  0  0  0  0  0  0
    8.1378  -21.2818    0.0000 O   0  0  0  0  0  0  0  0  0  0  0  0
    9.1379  -19.5497    0.0000 O   0  0  0  0  0  0  0  0  0  0  0  0
    7.7718  -19.9158    0.0000 O   0  0  0  0  0  0  0  0  0  0  0  0
   10.3699  -25.4157    0.0000 C   0  0  0  0  0  0  0  0  0  0  0  0
   11.2359  -25.9157    0.0000 C   0  0  0  0  0  0  0  0  0  0  0  0
    9.5039  -25.9157    0.0000 O   0  0  0  0  0  0  0  0  0  0  0  0
  1  2  1  0     0  0
  1  3  1  0     0  0
  2  4  1  0     0  0
  3  5  1  0     0  0
  4  6  1  0     0  0
  5  6  1  0     0  0
  1  7  1  1     0  0
  2  8  1  6     0  0
  4  9  1  1     0  0
  6 10  1  1     0  0
  5 11  1  1     0  0
 12 11  1  0     0  0
 13 14  1  0     0  0
 13 15  1  0     0  0
 14 16  1  0     0  0
 15 17  1  0     0  0
 16 18  1  0     0  0
 17 18  1  0     0  0
 13 19  1  0     0  0
 14 20  1  6     0  0
 16 21  1  1     0  0
 18  7  1  6     0  0
 17 22  1  1     0  0
 23 22  1  0     0  0
 25 24  1  0     0  0
 26 24  2  0     0  0
 20 24  1  0     0  0
 28 27  2  0     0  0
 29 27  2  0     0  0
 30 27  1  0     0  0
 23 27  1  0     0  0
 32 31  1  0     0  0
 33 31  2  0     0  0
  8 31  1  0     0  0
M  END
> <ID>
CHEBI:85873

> <NAME>
beta-D-GalpNAc-(1->4)-D-GlcpNAc6S

> <DEFINITION>
An amino disaccharide comprising N-acetyl-β-D-galactosamine and N-acetyl-6-O-sulfo-D-glucosamine residues linked (1→4).

> <STAR>
3

> <SYNONYM>
N-acetyl-beta-D-galactosaminyl-(1->4)-N-acetyl-6-O-sulfo-D-glucosamine; N-acetyl-4-O-(N-acetyl-beta-D-galactosaminyl)-6-O-sulfo-D-glucosamine; GalNAcbeta1-4(6S)GlcNAc; GalNAcb1-4(6S)GlcNAc

> <IUPAC_NAME>
2-acetamido-2-deoxy-beta-D-galactopyranosyl-(1->4)-2-acetamido-2-deoxy-6-O-sulfo-D-glucopyranose; 2-acetamido-2-deoxy-4-O-(2-acetamido-2-deoxy-beta-D-galactopyranosyl)-6-O-sulfo-D-glucopyranose

> <FORMULA>
C16H28N2O14S

> <MASS>
504.46400

> <MONOISOTOPIC_MASS>
504.12612

> <CHARGE>
0

> <SMILES>
CC(=O)N[C@H]1C(O)O[C@H](COS(O)(=O)=O)[C@@H](O[C@@H]2O[C@H](CO)[C@H](O)[C@H](O)[C@H]2NC(C)=O)[C@@H]1O

> <INCHI>
InChI=1S/C16H28N2O14S/c1-5(20)17-9-13(24)14(8(30-15(9)25)4-29-33(26,27)28)32-16-10(18-6(2)21)12(23)11(22)7(3-19)31-16/h7-16,19,22-25H,3-4H2,1-2H3,(H,17,20)(H,18,21)(H,26,27,28)/t7-,8-,9-,10-,11+,12-,13-,14-,15?,16+/m1/s1

> <INCHIKEY>
LWTVBQZPIKYRNQ-CAQKAZPESA-N

> <PUBMED_CITATION>
25568069

$$$$

Ketcher 05281515182D 1   1.00000     0.00000     0

 29 30  0     1  0            999 V2000
   12.5882  -10.4217    0.0000 C   0  0  0  0  0  0  0  0  0  0  0  0
   12.5882  -11.4217    0.0000 C   0  0  0  0  0  0  0  0  0  0  0  0
   11.7221   -9.9217    0.0000 O   0  0  0  0  0  0  0  0  0  0  0  0
   11.7221  -11.9217    0.0000 C   0  0  0  0  0  0  0  0  0  0  0  0
   10.8562  -10.4217    0.0000 C   0  0  0  0  0  0  0  0  0  0  0  0
   10.8562  -11.4217    0.0000 C   0  0  0  0  0  0  0  0  0  0  0  0
   13.4542   -9.9216    0.0000 O   0  0  0  0  0  0  0  0  0  0  0  0
   13.4542  -11.9217    0.0000 N   0  0  0  0  0  0  0  0  0  0  0  0
   11.7221  -12.9217    0.0000 O   0  0  0  0  0  0  0  0  0  0  0  0
    9.9901  -11.9216    0.0000 O   0  0  0  0  0  0  0  0  0  0  0  0
    9.9901   -9.9217    0.0000 C   0  0  0  0  0  0  0  0  0  0  0  0
    9.1240  -10.4217    0.0000 O   0  0  0  0  0  0  0  0  0  0  0  0
   14.3203   -7.4216    0.0000 C   0  0  0  0  0  0  0  0  0  0  0  0
   14.3203   -8.4216    0.0000 C   0  0  0  0  0  0  0  0  0  0  0  0
   13.4543   -6.9216    0.0000 O   0  0  0  0  0  0  0  0  0  0  0  0
   13.4543   -8.9216    0.0000 C   0  0  0  0  0  0  0  0  0  0  0  0
   12.5883   -7.4216    0.0000 C   0  0  0  0  0  0  0  0  0  0  0  0
   12.5883   -8.4216    0.0000 C   0  0  0  0  0  0  0  0  0  0  0  0
   15.1863   -6.9216    0.0000 O   0  0  0  0  0  0  0  0  0  0  0  0
   15.1863   -8.9217    0.0000 N   0  0  0  0  0  0  0  0  0  0  0  0
   11.7222   -8.9216    0.0000 O   0  0  0  0  0  0  0  0  0  0  0  0
   11.7222   -6.9216    0.0000 C   0  0  0  0  0  0  0  0  0  0  0  0
   10.8562   -7.4217    0.0000 O   0  0  0  0  0  0  0  0  0  0  0  0
   15.1863   -9.9217    0.0000 C   0  0  0  0  0  0  0  0  0  0  0  0
   16.0523  -10.4217    0.0000 O   0  0  0  0  0  0  0  0  0  0  0  0
   14.3203  -10.4216    0.0000 C   0  0  0  0  0  0  0  0  0  0  0  0
   13.4542  -12.9217    0.0000 C   0  0  0  0  0  0  0  0  0  0  0  0
   14.3202  -13.4217    0.0000 O   0  0  0  0  0  0  0  0  0  0  0  0
   12.5882  -13.4217    0.0000 C   0  0  0  0  0  0  0  0  0  0  0  0
  1  2  1  0     0  0
  1  3  1  0     0  0
  2  4  1  0     0  0
  3  5  1  0     0  0
  4  6  1  0     0  0
  5  6  1  0     0  0
  1  7  1  1     0  0
  2  8  1  6     0  0
  4  9  1  1     0  0
  6 10  1  1     0  0
  5 11  1  1     0  0
 12 11  1  0     0  0
 13 14  1  0     0  0
 13 15  1  0     0  0
 14 16  1  0     0  0
 15 17  1  0     0  0
 16 18  1  0     0  0
 17 18  1  0     0  0
 13 19  1  1     0  0
 14 20  1  6     0  0
 16  7  1  1     0  0
 18 21  1  6     0  0
 17 22  1  1     0  0
 23 22  1  0     0  0
 25 24  2  0     0  0
 26 24  1  0     0  0
 20 24  1  0     0  0
 28 27  2  0     0  0
 29 27  1  0     0  0
  8 27  1  0     0  0
M  END
> <ID>
CHEBI:85896

> <NAME>
beta-D-GalpNAc-(1->3)-beta-D-GlcpNAc

> <DEFINITION>
An amino disaccharide consisting of  N-acetyl-β-D-glucosamine with an N-acetyl-β-D-galactosaminyl residue atached at the 3-position.

> <STAR>
3

> <SYNONYM>
N-acetyl-beta-D-galactosaminyl-(1->3)-N-acetyl-beta-D-glucosamine; GalNAcbeta1-3GlcNAcbeta; GalNAcb1-3GlcNAcb

> <IUPAC_NAME>
2-acetamido-3-O-(2-acetamido-2-deoxy-beta-D-galactopyranosyl)-2-deoxy-beta-D-glucopyranose; 2-acetamido-2-deoxy-beta-D-galactopyranosyl-(1->3)-2-acetamido-2-deoxy-beta-D-glucopyranose

> <FORMULA>
C16H28N2O11

> <MASS>
424.40030

> <MONOISOTOPIC_MASS>
424.16931

> <CHARGE>
0

> <SMILES>
CC(=O)N[C@H]1[C@H](O)O[C@H](CO)[C@@H](O)[C@@H]1O[C@@H]1O[C@H](CO)[C@H](O)[C@H](O)[C@H]1NC(C)=O

> <INCHI>
InChI=1S/C16H28N2O11/c1-5(21)17-9-13(25)11(23)7(3-19)28-16(9)29-14-10(18-6(2)22)15(26)27-8(4-20)12(14)24/h7-16,19-20,23-26H,3-4H2,1-2H3,(H,17,21)(H,18,22)/t7-,8-,9-,10-,11+,12-,13-,14-,15-,16+/m1/s1

> <INCHIKEY>
FJGXDMQHNYEUHI-QELKQAQVSA-N

> <PUBMED_CITATION>
25568069

$$$$

Ketcher 06051511162D 1   1.00000     0.00000     0

 44 46  0     1  0            999 V2000
   23.5228  -10.0435    0.0000 C   0  0  0  0  0  0  0  0  0  0  0  0
   24.3887  -10.5436    0.0000 C   0  0  0  0  0  0  0  0  0  0  0  0
   25.2547   -9.0434    0.0000 C   0  0  0  0  0  0  0  0  0  0  0  0
   24.3888   -8.5435    0.0000 O   0  0  0  0  0  0  0  0  0  0  0  0
   25.2547  -10.0435    0.0000 C   0  0  0  0  0  0  0  0  0  0  0  0
   23.5228   -9.0435    0.0000 C   0  0  0  0  0  0  0  0  0  0  0  0
   26.1206  -10.5436    0.0000 O   0  0  0  0  0  0  0  0  0  0  0  0
   24.3887  -11.5436    0.0000 O   0  0  0  0  0  0  0  0  0  0  0  0
   22.6568  -10.5436    0.0000 O   0  0  0  0  0  0  0  0  0  0  0  0
   22.6567   -8.5435    0.0000 C   0  0  0  0  0  0  0  0  0  0  0  0
   22.6568   -7.5436    0.0000 O   0  0  0  0  0  0  0  0  0  0  0  0
   26.1206  -11.5434    0.0000 O   0  0  0  0  0  0  0  0  0  0  0  0
   25.2547  -12.0436    0.0000 S   0  0  0  0  0  0  0  0  0  0  0  0
   24.7549  -12.9097    0.0000 O   0  0  0  0  0  0  0  0  0  0  0  0
   25.7547  -12.9097    0.0000 O   0  0  0  0  0  0  0  0  0  0  0  0
   26.1208   -8.5434    0.0000 O   0  0  0  0  0  0  0  0  0  0  0  0
   27.8528   -8.5434    0.0000 C   0  0  0  0  0  0  0  0  0  0  0  0
   28.7187   -8.0434    0.0000 C   0  0  0  0  0  0  0  0  0  0  0  0
   27.8528   -9.5432    0.0000 O   0  0  0  0  0  0  0  0  0  0  0  0
   26.9868   -8.0434    0.0000 C   0  0  0  0  0  0  0  0  0  0  0  0
   28.7187   -7.0434    0.0000 C   0  0  0  0  0  0  0  0  0  0  0  0
   26.9868   -7.0434    0.0000 C   0  0  0  0  0  0  0  0  0  0  0  0
   27.8528   -6.5435    0.0000 O   0  0  0  0  0  0  0  0  0  0  0  0
   29.5849   -6.5435    0.0000 O   0  0  0  0  0  0  0  0  0  0  0  0
   26.1208   -6.5435    0.0000 C   0  0  0  0  0  0  0  0  0  0  0  0
   29.5849   -8.5434    0.0000 N   0  0  0  0  0  0  0  0  0  0  0  0
   26.1208   -5.5436    0.0000 O   0  0  0  0  0  0  0  0  0  0  0  0
   30.4509   -8.0434    0.0000 C   0  0  0  0  0  0  0  0  0  0  0  0
   30.4509   -7.0434    0.0000 O   0  0  0  0  0  0  0  0  0  0  0  0
   31.3169   -8.5434    0.0000 C   0  0  0  0  0  0  0  0  0  0  0  0
   24.3888   -5.5435    0.0000 O   0  0  0  0  0  0  0  0  0  0  0  0
   25.2550   -5.0435    0.0000 S   0  0  0  0  0  0  0  0  0  0  0  0
   24.7551   -4.1775    0.0000 O   0  0  0  0  0  0  0  0  0  0  0  0
   25.7549   -4.1775    0.0000 O   0  0  0  0  0  0  0  0  0  0  0  0
   29.5849   -9.5433    0.0000 O   0  0  0  0  0  0  0  0  0  0  0  0
   30.4511  -10.0434    0.0000 C   0  0  0  0  0  0  0  0  0  0  0  0
   28.7187  -10.0432    0.0000 C   0  0  0  0  0  0  0  0  0  0  0  0
   28.7187  -11.0433    0.0000 C   0  0  0  0  0  0  0  0  0  0  0  0
   29.5848  -11.5434    0.0000 C   0  0  0  0  0  0  0  0  0  0  0  0
   30.4511  -11.0435    0.0000 C   0  0  0  0  0  0  0  0  0  0  0  0
   27.8528  -11.5432    0.0000 O   0  0  0  0  0  0  0  0  0  0  0  0
   29.5847  -12.5436    0.0000 O   0  0  0  0  0  0  0  0  0  0  0  0
   31.3169  -11.5438    0.0000 O   0  0  0  0  0  0  0  0  0  0  0  0
   31.3173   -9.5436    0.0000 C   0  0  0  0  0  0  0  0  0  0  0  0
  1  9  1  1     0  0
  2  1  1  0     0  0
  2  8  1  1     0  0
  3  4  1  0     0  0
  3  5  1  0     0  0
  5  2  1  0     0  0
  5  7  1  6     0  0
  6  1  1  0     0  0
  4  6  1  0     0  0
  6 10  1  1     0  0
 10 11  1  0     0  0
  8 13  1  0     0  0
 13 12  1  0     0  0
 13 14  2  0     0  0
 15 13  2  0     0  0
  3 16  1  1     0  0
 17 18  1  0     0  0
 17 19  1  1     0  0
 17 20  1  0     0  0
 18 21  1  0     0  0
 18 26  1  6     0  0
 20 22  1  0     0  0
 20 16  1  6     0  0
 21 23  1  0     0  0
 21 24  1  1     0  0
 22 25  1  1     0  0
 22 23  1  0     0  0
 25 27  1  0     0  0
 29 28  2  0     0  0
 30 28  1  0     0  0
 26 28  1  0     0  0
 31 32  1  0     0  0
 32 27  1  0     0  0
 32 33  2  0     0  0
 34 32  2  0     0  0
 36 35  1  0     0  0
 37 35  1  0     0  0
 37 38  1  0     0  0
 38 41  1  6     0  0
 38 39  1  0     0  0
 39 42  1  1     0  0
 39 40  1  0     0  0
 40 36  1  0     0  0
 40 43  1  1     0  0
 36 44  1  1     0  0
 37 19  1  6     0  0
M  END
> <ID>
CHEBI:85947

> <NAME>
beta-D-Galp3S-(1->4)-[alpha-L-Fucp-(1->3)]-beta-D-GlcpNAc6S

> <DEFINITION>
β-D-Galp3S-(1→4)-[α-L-Fucp-(1→3)]-D-GlcpNAc6S in which the anomeric configuration of the 6-O-sulfo-N-acetyl-D-glucosamine residue at the reducing end is β.

> <STAR>
3

> <SYNONYM>
beta-D-Gal3S-(1->4)-[alpha-L-Fuc-(1->3)]-beta-D-GlcNAc6S; alpha-L-fucosyl-(1->3)-[3-O-sulfo-beta-D-galactosyl-(1->4)]-6-O-sulfo-N-acetyl-beta-D-glucosamine; [3OSO3]Galbeta1-4[Fucalpha1-3][6OSO3]GlcbetaNAc; (3S)Galbeta1-4(Fucalpha1-3)(6S)GlcNAcbeta; (3S)Galb1-4(Fuca1-3)(6S)GlcNAcb

> <IUPAC_NAME>
alpha-L-fucopyranosyl-(1->3)-[3-O-sulfo-beta-D-galactopyranosyl-(1->4)]-2-acetamido-2-deoxy-6-O-sulfo-beta-D-glucopyranose; 6-deoxy-alpha-L-galactopyranosyl-(1->3)-[3-O-sulfo-beta-D-galactopyranosyl-(1->4)]-2-acetamido-2-deoxy-6-O-sulfo-beta-D-glucopyranose

> <FORMULA>
C20H35NO21S2

> <MASS>
689.61600

> <MONOISOTOPIC_MASS>
689.11430

> <CHARGE>
0

> <SMILES>
C[C@@H]1O[C@@H](O[C@@H]2[C@@H](NC(C)=O)[C@H](O)O[C@H](COS(O)(=O)=O)[C@H]2O[C@@H]2O[C@H](CO)[C@H](O)[C@H](OS(O)(=O)=O)[C@H]2O)[C@@H](O)[C@H](O)[C@@H]1O

> <INCHI>
InChI=1S/C20H35NO21S2/c1-5-10(24)12(26)13(27)19(37-5)41-16-9(21-6(2)23)18(29)38-8(4-36-43(30,31)32)15(16)40-20-14(28)17(42-44(33,34)35)11(25)7(3-22)39-20/h5,7-20,22,24-29H,3-4H2,1-2H3,(H,21,23)(H,30,31,32)(H,33,34,35)/t5-,7+,8+,9+,10+,11-,12+,13-,14+,15+,16+,17-,18+,19-,20-/m0/s1

> <INCHIKEY>
QIUAWXQXJLOJLR-JGMUFZQJSA-N

> <PUBMED_CITATION>
25568069; 31537530

$$$$

Ketcher 06051511482D 1   1.00000     0.00000     0

 40 42  0     1  0            999 V2000
   30.6903   -6.9691    0.0000 C   0  0  0  0  0  0  0  0  0  0  0  0
   31.5562   -7.4691    0.0000 C   0  0  0  0  0  0  0  0  0  0  0  0
   29.8242   -7.4691    0.0000 O   0  0  0  0  0  0  0  0  0  0  0  0
   31.5562   -8.4692    0.0000 C   0  0  0  0  0  0  0  0  0  0  0  0
   29.8242   -8.4692    0.0000 C   0  0  0  0  0  0  0  0  0  0  0  0
   30.6903   -8.9691    0.0000 C   0  0  0  0  0  0  0  0  0  0  0  0
   30.6901   -5.9691    0.0000 O   0  0  0  0  0  0  0  0  0  0  0  0
   32.4223   -6.9691    0.0000 O   0  0  0  0  0  0  0  0  0  0  0  0
   32.4223   -8.9691    0.0000 O   0  0  0  0  0  0  0  0  0  0  0  0
   30.6903   -9.9692    0.0000 O   0  0  0  0  0  0  0  0  0  0  0  0
   28.9582   -8.9691    0.0000 C   0  0  0  0  0  0  0  0  0  0  0  0
   29.8242   -4.4690    0.0000 C   0  0  0  0  0  0  0  0  0  0  0  0
   29.8242   -5.4691    0.0000 C   0  0  0  0  0  0  0  0  0  0  0  0
   28.9578   -3.9690    0.0000 O   0  0  0  0  0  0  0  0  0  0  0  0
   28.9578   -5.9691    0.0000 C   0  0  0  0  0  0  0  0  0  0  0  0
   28.0919   -4.4690    0.0000 C   0  0  0  0  0  0  0  0  0  0  0  0
   28.0919   -5.4691    0.0000 C   0  0  0  0  0  0  0  0  0  0  0  0
   28.9578   -6.9691    0.0000 O   0  0  0  0  0  0  0  0  0  0  0  0
   27.2260   -5.9691    0.0000 O   0  0  0  0  0  0  0  0  0  0  0  0
   27.2260   -3.9690    0.0000 C   0  0  0  0  0  0  0  0  0  0  0  0
   26.3600   -4.4690    0.0000 O   0  0  0  0  0  0  0  0  0  0  0  0
   30.6901   -3.9690    0.0000 O   0  0  0  0  0  0  0  0  0  0  0  0
   32.4221   -4.9689    0.0000 O   0  0  0  0  0  0  0  0  0  0  0  0
   33.2881   -2.4689    0.0000 C   0  0  0  0  0  0  0  0  0  0  0  0
   33.2881   -3.4689    0.0000 C   0  0  0  0  0  0  0  0  0  0  0  0
   32.4221   -1.9690    0.0000 O   0  0  0  0  0  0  0  0  0  0  0  0
   32.4221   -3.9690    0.0000 C   0  0  0  0  0  0  0  0  0  0  0  0
   31.5559   -2.4689    0.0000 C   0  0  0  0  0  0  0  0  0  0  0  0
   31.5559   -3.4689    0.0000 C   0  0  0  0  0  0  0  0  0  0  0  0
   34.1542   -1.9690    0.0000 O   0  0  0  0  0  0  0  0  0  0  0  0
   34.1542   -3.9690    0.0000 N   0  0  0  0  0  0  0  0  0  0  0  0
   30.6901   -1.9690    0.0000 C   0  0  0  0  0  0  0  0  0  0  0  0
   29.8240   -2.4689    0.0000 O   0  0  0  0  0  0  0  0  0  0  0  0
   24.6281   -4.4690    0.0000 O   0  0  0  0  0  0  0  0  0  0  0  0
   25.4942   -3.9690    0.0000 S   0  0  0  0  0  0  0  0  0  0  0  0
   24.9939   -3.1030    0.0000 O   0  0  0  0  0  0  0  0  0  0  0  0
   25.9940   -3.1030    0.0000 O   0  0  0  0  0  0  0  0  0  0  0  0
   34.1542   -4.9689    0.0000 C   0  0  0  0  0  0  0  0  0  0  0  0
   35.0202   -5.4690    0.0000 O   0  0  0  0  0  0  0  0  0  0  0  0
   33.2881   -5.4690    0.0000 C   0  0  0  0  0  0  0  0  0  0  0  0
  1  2  1  0     0  0
  1  3  1  0     0  0
  2  4  1  0     0  0
  3  5  1  0     0  0
  4  6  1  0     0  0
  5  6  1  0     0  0
  1  7  1  1     0  0
  2  8  1  1     0  0
  4  9  1  6     0  0
  6 10  1  6     0  0
  5 11  1  6     0  0
 12 13  1  0     0  0
 12 14  1  0     0  0
 13 15  1  0     0  0
 14 16  1  0     0  0
 15 17  1  0     0  0
 16 17  1  0     0  0
 13  7  1  6     0  0
 15 18  1  1     0  0
 17 19  1  1     0  0
 16 20  1  1     0  0
 21 20  1  0     0  0
 12 22  1  1     0  0
 24 25  1  0     0  0
 24 26  1  0     0  0
 25 27  1  0     0  0
 26 28  1  0     0  0
 27 29  1  0     0  0
 28 29  1  0     0  0
 24 30  1  1     0  0
 25 31  1  6     0  0
 27 23  1  1     0  0
 29 22  1  6     0  0
 28 32  1  1     0  0
 33 32  1  0     0  0
 34 35  1  0     0  0
 35 21  1  0     0  0
 35 36  2  0     0  0
 37 35  2  0     0  0
 39 38  2  0     0  0
 40 38  1  0     0  0
 31 38  1  0     0  0
M  END
> <ID>
CHEBI:85948

> <NAME>
alpha-L-Fucp-(1->2)-beta-D-Galp6S-(1->4)-beta-D-GlcpNAc

> <DEFINITION>
α-L-Fucp-(1→2)-β-D-Galp6S-(1→4)-D-GlcpNAc in which the anomeric configuration of the N-acetyl-D-glucosamine residue at the reducing end is β.

> <STAR>
3

> <SYNONYM>
L-fucosyl-(1->2)-6-O-sulfo-beta-D-galactosyl-(1->4)-N-acetyl-beta-D-glucosamine; Fucalpha1-2[6OSO3]Galbeta1-4GlcbetaNAc; Fucalpha1-2(6S)Galbeta1-4GlcNAcbeta; Fuca1-2(6S)Galb1-4GlcNAcb; alpha-L-Fuc-(1->2)-beta-D-Gal6S-(1->4)-betaD-GlcNAc

> <IUPAC_NAME>
L-fucopyranosyl-(1->2)-6-O-sulfo-beta-D-galactopyranosyl-(1->4)-2-acetamido-2-deoxy-beta-D-glucopyranose; 6-deoxy-alpha-L-galactopyranosyl-(1->2)-6-O-sulfo-beta-D-galactopyranosyl-(1->4)-2-acetamido-2-deoxy-beta-D-glucopyranose

> <FORMULA>
C20H35NO18S

> <MASS>
609.55300

> <MONOISOTOPIC_MASS>
609.15748

> <CHARGE>
0

> <SMILES>
C[C@@H]1O[C@@H](O[C@@H]2[C@@H](O)[C@@H](O)[C@@H](COS(O)(=O)=O)O[C@H]2O[C@H]2[C@H](O)[C@@H](NC(C)=O)[C@H](O)O[C@@H]2CO)[C@@H](O)[C@H](O)[C@@H]1O

> <INCHI>
InChI=1S/C20H35NO18S/c1-5-10(24)13(27)15(29)19(35-5)39-17-14(28)11(25)8(4-34-40(31,32)33)37-20(17)38-16-7(3-22)36-18(30)9(12(16)26)21-6(2)23/h5,7-20,22,24-30H,3-4H2,1-2H3,(H,21,23)(H,31,32,33)/t5-,7+,8+,9+,10+,11-,12+,13+,14-,15-,16+,17+,18+,19-,20-/m0/s1

> <INCHIKEY>
VUGHKFPWQKVBPT-QVPNGJTFSA-N

> <PUBMED_CITATION>
25568069; 31537530

$$$$

Ketcher 06051512042D 1   1.00000     0.00000     0

 41 43  0     1  0            999 V2000
   38.1395  -15.6978    0.0000 C   0  0  0  0  0  0  0  0  0  0  0  0
   39.0055  -16.1979    0.0000 C   0  0  0  0  0  0  0  0  0  0  0  0
   37.2733  -16.1979    0.0000 O   0  0  0  0  0  0  0  0  0  0  0  0
   39.0055  -17.1979    0.0000 C   0  0  0  0  0  0  0  0  0  0  0  0
   37.2733  -17.1979    0.0000 C   0  0  0  0  0  0  0  0  0  0  0  0
   38.1395  -17.6979    0.0000 C   0  0  0  0  0  0  0  0  0  0  0  0
   38.1393  -14.6978    0.0000 O   0  0  0  0  0  0  0  0  0  0  0  0
   39.8714  -15.6978    0.0000 O   0  0  0  0  0  0  0  0  0  0  0  0
   39.8714  -17.6979    0.0000 O   0  0  0  0  0  0  0  0  0  0  0  0
   38.1395  -18.6979    0.0000 O   0  0  0  0  0  0  0  0  0  0  0  0
   36.4074  -17.6979    0.0000 C   0  0  0  0  0  0  0  0  0  0  0  0
   37.2733  -13.1976    0.0000 C   0  0  0  0  0  0  0  0  0  0  0  0
   37.2733  -14.1977    0.0000 C   0  0  0  0  0  0  0  0  0  0  0  0
   36.4070  -12.6976    0.0000 O   0  0  0  0  0  0  0  0  0  0  0  0
   36.4070  -14.6978    0.0000 C   0  0  0  0  0  0  0  0  0  0  0  0
   35.5411  -13.1976    0.0000 C   0  0  0  0  0  0  0  0  0  0  0  0
   35.5411  -14.1977    0.0000 C   0  0  0  0  0  0  0  0  0  0  0  0
   36.4070  -15.6978    0.0000 O   0  0  0  0  0  0  0  0  0  0  0  0
   34.6751  -14.6978    0.0000 O   0  0  0  0  0  0  0  0  0  0  0  0
   34.6751  -12.6976    0.0000 C   0  0  0  0  0  0  0  0  0  0  0  0
   33.8092  -13.1976    0.0000 O   0  0  0  0  0  0  0  0  0  0  0  0
   38.1393  -12.6976    0.0000 O   0  0  0  0  0  0  0  0  0  0  0  0
   39.8713  -13.6974    0.0000 O   0  0  0  0  0  0  0  0  0  0  0  0
   40.7373  -11.1975    0.0000 C   0  0  0  0  0  0  0  0  0  0  0  0
   40.7373  -12.1975    0.0000 C   0  0  0  0  0  0  0  0  0  0  0  0
   39.8713  -10.6976    0.0000 O   0  0  0  0  0  0  0  0  0  0  0  0
   39.8713  -12.6976    0.0000 C   0  0  0  0  0  0  0  0  0  0  0  0
   39.0053  -11.1975    0.0000 C   0  0  0  0  0  0  0  0  0  0  0  0
   39.0053  -12.1975    0.0000 C   0  0  0  0  0  0  0  0  0  0  0  0
   41.6034  -10.6976    0.0000 O   0  0  0  0  0  0  0  0  0  0  0  0
   41.6034  -12.6976    0.0000 O   0  0  0  0  0  0  0  0  0  0  0  0
   38.1393  -10.6976    0.0000 C   0  0  0  0  0  0  0  0  0  0  0  0
   37.2733  -11.1975    0.0000 O   0  0  0  0  0  0  0  0  0  0  0  0
   32.0773  -13.1976    0.0000 O   0  0  0  0  0  0  0  0  0  0  0  0
   32.9433  -12.6976    0.0000 S   0  0  0  0  0  0  0  0  0  0  0  0
   32.4431  -11.8316    0.0000 O   0  0  0  0  0  0  0  0  0  0  0  0
   33.4431  -11.8316    0.0000 O   0  0  0  0  0  0  0  0  0  0  0  0
   35.5414  -11.1975    0.0000 O   0  0  0  0  0  0  0  0  0  0  0  0
   36.4074  -10.6976    0.0000 S   0  0  0  0  0  0  0  0  0  0  0  0
   35.9071   -9.8316    0.0000 O   0  0  0  0  0  0  0  0  0  0  0  0
   36.9073   -9.8316    0.0000 O   0  0  0  0  0  0  0  0  0  0  0  0
  1  2  1  0     0  0
  1  3  1  0     0  0
  2  4  1  0     0  0
  3  5  1  0     0  0
  4  6  1  0     0  0
  5  6  1  0     0  0
  1  7  1  1     0  0
  2  8  1  1     0  0
  4  9  1  6     0  0
  6 10  1  6     0  0
  5 11  1  6     0  0
 12 13  1  0     0  0
 12 14  1  0     0  0
 13 15  1  0     0  0
 14 16  1  0     0  0
 15 17  1  0     0  0
 16 17  1  0     0  0
 13  7  1  6     0  0
 15 18  1  1     0  0
 17 19  1  1     0  0
 16 20  1  1     0  0
 21 20  1  0     0  0
 12 22  1  1     0  0
 24 25  1  0     0  0
 24 26  1  0     0  0
 25 27  1  0     0  0
 26 28  1  0     0  0
 27 29  1  0     0  0
 28 29  1  0     0  0
 24 30  1  1     0  0
 25 31  1  6     0  0
 27 23  1  1     0  0
 29 22  1  6     0  0
 28 32  1  1     0  0
 33 32  1  0     0  0
 34 35  1  0     0  0
 35 21  1  0     0  0
 35 36  2  0     0  0
 37 35  2  0     0  0
 38 39  1  0     0  0
 39 33  1  0     0  0
 39 40  2  0     0  0
 41 39  2  0     0  0
M  END
> <ID>
CHEBI:85949

> <NAME>
alpha-L-Fucp-(1->2)-beta-D-Galp6S-(1->4)-beta-D-Glcp6S

> <DEFINITION>
α-L-Fucp-(1→2)-β-D-Galp6S-(1→4)-D-Glcp6S in which the anomeric configuration of the 6-O-sulfo-D-glucose residue at the reducing end is β.

> <STAR>
3

> <SYNONYM>
Fucalpha1-2[6OSO3]Galbeta1-4[6OSO3]Glcbeta; Fucalpha1-2(6S)Galbeta1-4(6S)Glcbeta; Fuca1-2(6S)Galb1-4(6S)Glcb; alpha-L-fucosyl-(1->2)-6-O-sulfo-beta-D-galactosyl-(1->4)-6-O-sulfo-beta-D-glucose; alpha-L-Fuc-(1->2)-beta-D-Gal6S-(1->4)-beta-D-Glc6S

> <IUPAC_NAME>
alpha-L-fucopyranosyl-(1->2)-6-O-sulfo-beta-D-galactopyranosyl-(1->4)-6-O-sulfo-beta-D-glucopyranose; 6-deoxy-alpha-L-galactopyranosyl-(1->2)-6-O-sulfo-beta-D-galactopyranosyl-(1->4)-6-O-sulfo-beta-D-glucopyranose

> <FORMULA>
C18H32O21S2

> <MASS>
648.56400

> <MONOISOTOPIC_MASS>
648.08775

> <CHARGE>
0

> <SMILES>
C[C@@H]1O[C@@H](O[C@@H]2[C@@H](O)[C@@H](O)[C@@H](COS(O)(=O)=O)O[C@H]2O[C@H]2[C@H](O)[C@@H](O)[C@H](O)O[C@@H]2COS(O)(=O)=O)[C@@H](O)[C@H](O)[C@@H]1O

> <INCHI>
InChI=1S/C18H32O21S2/c1-4-7(19)9(21)13(25)17(35-4)39-15-10(22)8(20)5(2-33-40(27,28)29)37-18(15)38-14-6(3-34-41(30,31)32)36-16(26)12(24)11(14)23/h4-26H,2-3H2,1H3,(H,27,28,29)(H,30,31,32)/t4-,5+,6+,7+,8-,9+,10-,11+,12+,13-,14+,15+,16+,17-,18-/m0/s1

> <INCHIKEY>
MVDJZFQEQMGOIH-OHWKOEMOSA-N

> <PUBMED_CITATION>
25568069; 31537530

$$$$

Ketcher 07201515382D 1   1.00000     0.00000     0

 37 39  0     1  0            999 V2000
   21.3902  -14.6097    0.0000 C   0  0  0  0  0  0  0  0  0  0  0  0
   21.3902  -15.6097    0.0000 C   0  0  0  0  0  0  0  0  0  0  0  0
   20.5241  -14.1098    0.0000 O   0  0  0  0  0  0  0  0  0  0  0  0
   20.5241  -16.1097    0.0000 C   0  0  0  0  0  0  0  0  0  0  0  0
   19.6582  -14.6097    0.0000 C   0  0  0  0  0  0  0  0  0  0  0  0
   19.6582  -15.6097    0.0000 C   0  0  0  0  0  0  0  0  0  0  0  0
   22.2561  -14.1098    0.0000 O   0  0  0  0  0  0  0  0  0  0  0  0
   22.2561  -16.1097    0.0000 O   0  0  0  0  0  0  0  0  0  0  0  0
   20.5241  -17.1097    0.0000 O   0  0  0  0  0  0  0  0  0  0  0  0
   18.7921  -16.1097    0.0000 O   0  0  0  0  0  0  0  0  0  0  0  0
   18.7921  -14.1098    0.0000 C   0  0  0  0  0  0  0  0  0  0  0  0
   17.9261  -14.6097    0.0000 O   0  0  0  0  0  0  0  0  0  0  0  0
   24.8543  -12.6097    0.0000 C   0  0  0  0  0  0  0  0  0  0  0  0
   24.8543  -13.6097    0.0000 C   0  0  0  0  0  0  0  0  0  0  0  0
   23.9883  -12.1097    0.0000 O   0  0  0  0  0  0  0  0  0  0  0  0
   23.9883  -14.1098    0.0000 C   0  0  0  0  0  0  0  0  0  0  0  0
   23.1223  -12.6097    0.0000 C   0  0  0  0  0  0  0  0  0  0  0  0
   23.1223  -13.6097    0.0000 C   0  0  0  0  0  0  0  0  0  0  0  0
   25.7204  -12.1097    0.0000 O   0  0  0  0  0  0  0  0  0  0  0  0
   25.7204  -14.1098    0.0000 O   0  0  0  0  0  0  0  0  0  0  0  0
   23.9883  -15.1097    0.0000 O   0  0  0  0  0  0  0  0  0  0  0  0
   22.2561  -12.1097    0.0000 C   0  0  0  0  0  0  0  0  0  0  0  0
   21.3902  -12.6097    0.0000 O   0  0  0  0  0  0  0  0  0  0  0  0
   20.5241  -12.1097    0.0000 S   0  0  0  0  0  0  0  0  0  0  0  0
   20.0241  -12.9758    0.0000 O   0  0  0  0  0  0  0  0  0  0  0  0
   21.0241  -11.2437    0.0000 O   0  0  0  0  0  0  0  0  0  0  0  0
   19.6582  -11.6098    0.0000 O   0  0  0  0  0  0  0  0  0  0  0  0
   24.4883  -15.9757    0.0000 C   0  0  0  0  0  0  0  0  0  0  0  0
   25.4882  -15.9757    0.0000 C   0  0  0  0  0  0  0  0  0  0  0  0
   23.9883  -16.8419    0.0000 O   0  0  0  0  0  0  0  0  0  0  0  0
   25.9883  -16.8419    0.0000 C   0  0  0  0  0  0  0  0  0  0  0  0
   24.4883  -17.7077    0.0000 C   0  0  0  0  0  0  0  0  0  0  0  0
   25.4882  -17.7077    0.0000 C   0  0  0  0  0  0  0  0  0  0  0  0
   25.9883  -15.1097    0.0000 O   0  0  0  0  0  0  0  0  0  0  0  0
   26.9883  -16.8419    0.0000 O   0  0  0  0  0  0  0  0  0  0  0  0
   25.9883  -18.5739    0.0000 O   0  0  0  0  0  0  0  0  0  0  0  0
   23.9883  -18.5739    0.0000 C   0  0  0  0  0  0  0  0  0  0  0  0
  1  2  1  0     0  0
  1  3  1  0     0  0
  2  4  1  0     0  0
  3  5  1  0     0  0
  4  6  1  0     0  0
  5  6  1  0     0  0
  1  7  1  1     0  0
  2  8  1  6     0  0
  4  9  1  1     0  0
  6 10  1  1     0  0
  5 11  1  1     0  0
 12 11  1  0     0  0
 13 14  1  0     0  0
 13 15  1  0     0  0
 14 16  1  0     0  0
 15 17  1  0     0  0
 16 18  1  0     0  0
 17 18  1  0     0  0
 13 19  1  1     0  0
 14 20  1  6     0  0
 16 21  1  1     0  0
 18  7  1  6     0  0
 17 22  1  1     0  0
 23 22  1  0     0  0
 25 24  2  0     0  0
 26 24  2  0     0  0
 27 24  1  0     0  0
 23 24  1  0     0  0
 28 29  1  0     0  0
 28 30  1  0     0  0
 29 31  1  0     0  0
 30 32  1  0     0  0
 31 33  1  0     0  0
 32 33  1  0     0  0
 28 21  1  1     0  0
 29 34  1  1     0  0
 31 35  1  6     0  0
 33 36  1  6     0  0
 32 37  1  6     0  0
M  END
> <ID>
CHEBI:87001

> <NAME>
beta-D-Galp-(1->4)-[alpha-L-Fucp-(1->3)]-beta-D-Glcp6S

> <DEFINITION>
β-D-Galp-(1→4)-[α-L-Fucp-(1→3)]-D-Glcp6S in which the anomeric configuration of the glucose residue is β.

> <STAR>
3

> <SYNONYM>
Galbeta1-4[Fucalpha1-3][6OSO3]Glcbeta; Galb1-4(Fuca1-3)(6S)Glcb; beta-D-Gal-(1->4)-[alpha-L-Fuc-(1->3)]-beta-D-Glc6S; alpha-L-fucosyl-(1->3)-[beta-D-galactosyl-(1->4)]-6-O-sulfo-beta-D-glucose; 6-deoxy-alpha-L-galactopyranosyl-(1->3)-[beta-D-galactopyranosyl-(1->4)]-6-O-sulfo-beta-D-glucopyranose

> <IUPAC_NAME>
alpha-L-fucopyranosyl-(1->3)-[beta-D-galactopyranosyl-(1->4)]-6-O-sulfo-beta-D-glucopyranose

> <FORMULA>
C18H32O18S

> <MASS>
568.50100

> <MONOISOTOPIC_MASS>
568.13094

> <CHARGE>
0

> <SMILES>
C[C@@H]1O[C@@H](O[C@@H]2[C@@H](O)[C@H](O)O[C@H](COS(O)(=O)=O)[C@H]2O[C@@H]2O[C@H](CO)[C@H](O)[C@H](O)[C@H]2O)[C@@H](O)[C@H](O)[C@@H]1O

> <INCHI>
InChI=1S/C18H32O18S/c1-4-7(20)9(22)11(24)17(32-4)36-15-13(26)16(27)33-6(3-31-37(28,29)30)14(15)35-18-12(25)10(23)8(21)5(2-19)34-18/h4-27H,2-3H2,1H3,(H,28,29,30)/t4-,5+,6+,7+,8-,9+,10-,11-,12+,13+,14+,15+,16+,17-,18-/m0/s1

> <INCHIKEY>
DKLOUTRFEQRPFB-FZQFCOJCSA-N

> <PUBMED_CITATION>
25568069; 31537530

$$$$

Ketcher 07201517192D 1   1.00000     0.00000     0

 34 35  0     1  0            999 V2000
   23.6040  -11.8671    0.0000 C   0  0  0  0  0  0  0  0  0  0  0  0
   24.4819  -11.3625    0.0000 C   0  0  0  0  0  0  0  0  0  0  0  0
   22.7433  -11.3625    0.0000 C   0  0  0  0  0  0  0  0  0  0  0  0
   23.6040  -12.8678    0.0000 O   0  0  0  0  0  0  0  0  0  0  0  0
   24.4819  -10.3533    0.0000 C   0  0  0  0  0  0  0  0  0  0  0  0
   25.3512  -11.8544    0.0000 N   0  0  0  0  0  0  0  0  0  0  0  0
   22.7433  -10.3533    0.0000 C   0  0  0  0  0  0  0  0  0  0  0  0
   21.8781  -11.8501    0.0000 O   0  0  0  0  0  0  0  0  0  0  0  0
   22.7390  -13.3597    0.0000 C   0  0  0  0  0  0  0  0  0  0  0  0
   23.6040   -9.8486    0.0000 O   0  0  0  0  0  0  0  0  0  0  0  0
   25.3470   -9.8444    0.0000 O   0  0  0  0  0  0  0  0  0  0  0  0
   25.3512  -12.8552    0.0000 C   0  0  0  0  0  0  0  0  0  0  0  0
   21.8824   -9.8486    0.0000 C   0  0  0  0  0  0  0  0  0  0  0  0
   22.7262  -14.2375    0.0000 C   0  0  0  0  0  0  0  0  0  0  0  0
   21.8781  -12.8637    0.0000 C   0  0  0  0  0  0  0  0  0  0  0  0
   26.2162  -13.3513    0.0000 C   0  0  0  0  0  0  0  0  0  0  0  0
   24.4861  -13.3556    0.0000 O   0  0  0  0  0  0  0  0  0  0  0  0
   21.0005  -10.3490    0.0000 O   0  0  0  0  0  0  0  0  0  0  0  0
   21.8305  -14.6905    0.0000 O   0  0  0  0  0  0  0  0  0  0  0  0
   23.5999  -14.8609    0.0000 O   0  0  0  0  0  0  0  0  0  0  0  0
   27.9471   -8.3432    0.0000 C   0  0  0  0  0  0  0  0  0  0  0  0
   27.9471   -9.3440    0.0000 C   0  0  0  0  0  0  0  0  0  0  0  0
   27.0804   -7.8428    0.0000 O   0  0  0  0  0  0  0  0  0  0  0  0
   27.0804   -9.8444    0.0000 C   0  0  0  0  0  0  0  0  0  0  0  0
   26.2137   -8.3432    0.0000 C   0  0  0  0  0  0  0  0  0  0  0  0
   26.2137   -9.3440    0.0000 C   0  0  0  0  0  0  0  0  0  0  0  0
   28.8138   -7.8428    0.0000 O   0  0  0  0  0  0  0  0  0  0  0  0
   28.8138   -9.8444    0.0000 N   0  0  0  0  0  0  0  0  0  0  0  0
   27.0804  -10.8451    0.0000 O   0  0  0  0  0  0  0  0  0  0  0  0
   25.3470   -7.8428    0.0000 C   0  0  0  0  0  0  0  0  0  0  0  0
   24.4803   -8.3432    0.0000 O   0  0  0  0  0  0  0  0  0  0  0  0
   28.8138  -10.8451    0.0000 C   0  0  0  0  0  0  0  0  0  0  0  0
   29.6804  -11.3455    0.0000 C   0  0  0  0  0  0  0  0  0  0  0  0
   27.9471  -11.3455    0.0000 O   0  0  0  0  0  0  0  0  0  0  0  0
  1  2  1  0     0  0
  1  3  1  0     0  0
  1  4  1  1     0  0
  2  5  1  0     0  0
  2  6  1  6     0  0
  3  7  1  0     0  0
  3  8  1  6     0  0
  4  9  1  0     0  0
  5 10  1  0     0  0
  5 11  1  1     0  0
  6 12  1  0     0  0
  7 13  1  1     0  0
  9 14  1  0     0  0
  9 15  1  1     0  0
 12 16  1  0     0  0
 12 17  2  0     0  0
 13 18  1  0     0  0
 14 20  2  0     0  0
  7 10  1  0     0  0
 14 19  1  0     0  0
 21 22  1  0     0  0
 21 23  1  0     0  0
 22 24  1  0     0  0
 23 25  1  0     0  0
 24 26  1  0     0  0
 25 26  1  0     0  0
 21 27  1  1     0  0
 22 28  1  6     0  0
 24 29  1  1     0  0
 26 11  1  6     0  0
 25 30  1  1     0  0
 31 30  1  0     0  0
 33 32  1  0     0  0
 34 32  2  0     0  0
 28 32  1  0     0  0
M  END
> <ID>
CHEBI:87004

> <NAME>
beta-MurNAc-(1->4)-beta-D-GlcpNAc

> <DEFINITION>
An amino disaccharide comprising an N-acetyl-β-muramyl residue linked (1→4) to N-acetyl-β-D-glucosamine.

> <STAR>
3

> <SYNONYM>
N-acetyl-beta-muramyl-(1->4)-N-acetyl-beta-D-glucosamine; N-acetyl-beta-muramoyl-(1->4)-N-acetyl-beta-D-glucosamine; MurNAcbeta1-4GlcNAcbeta; MurNAcb1-4GlcNAcb; beta-MurNAc-(1->4)-beta-D-GlcNAc; 4-O-(N-acetyl-beta-muramyl)-N-acetyl-beta-D-glucosamine; 4-O-(N-acetyl-beta-muramoyl)-N-acetyl-beta-D-glucosamine

> <IUPAC_NAME>
2-acetamido-4-O-{2-acetamido-3-O-[(1R)-1-carboxyethyl]-2-deoxy-beta-D-glucopyranosyl}-2-deoxy-beta-D-glucopyranose

> <FORMULA>
C19H32N2O13

> <MASS>
496.46300

> <MONOISOTOPIC_MASS>
496.19044

> <CHARGE>
0

> <SMILES>
C[C@@H](O[C@H]1[C@H](O)[C@@H](CO)O[C@@H](O[C@H]2[C@H](O)[C@@H](NC(C)=O)[C@H](O)O[C@@H]2CO)[C@@H]1NC(C)=O)C(O)=O

> <INCHI>
InChI=1S/C19H32N2O13/c1-6(17(28)29)31-16-12(21-8(3)25)19(33-9(4-22)13(16)26)34-15-10(5-23)32-18(30)11(14(15)27)20-7(2)24/h6,9-16,18-19,22-23,26-27,30H,4-5H2,1-3H3,(H,20,24)(H,21,25)(H,28,29)/t6-,9-,10-,11-,12-,13-,14-,15-,16-,18-,19+/m1/s1

> <INCHIKEY>
SJKBAJLKHOPUHW-STFZFCBQSA-N

> <PUBMED_CITATION>
25568069; 31537530

$$$$

Ketcher 07291516012D 1   1.00000     0.00000     0

 23 24  0     1  0            999 V2000
   11.6845   -8.4578    0.0000 C   0  0  0  0  0  0  0  0  0  0  0  0
   11.6845   -9.4578    0.0000 C   0  0  0  0  0  0  0  0  0  0  0  0
   10.8185   -7.9578    0.0000 O   0  0  0  0  0  0  0  0  0  0  0  0
   10.8185   -9.9578    0.0000 C   0  0  0  0  0  0  0  0  0  0  0  0
    9.9525   -8.4578    0.0000 C   0  0  0  0  0  0  0  0  0  0  0  0
    9.9525   -9.4578    0.0000 C   0  0  0  0  0  0  0  0  0  0  0  0
   12.5505   -7.9578    0.0000 O   0  0  0  0  0  0  0  0  0  0  0  0
   12.5505   -9.9578    0.0000 O   0  0  0  0  0  0  0  0  0  0  0  0
   10.8185  -10.9578    0.0000 O   0  0  0  0  0  0  0  0  0  0  0  0
    9.0864   -9.9578    0.0000 O   0  0  0  0  0  0  0  0  0  0  0  0
    9.0864   -7.9578    0.0000 C   0  0  0  0  0  0  0  0  0  0  0  0
    8.2204   -8.4578    0.0000 O   0  0  0  0  0  0  0  0  0  0  0  0
   15.1487   -6.4578    0.0000 C   0  0  0  0  0  0  0  0  0  0  0  0
   15.1487   -7.4578    0.0000 C   0  0  0  0  0  0  0  0  0  0  0  0
   14.2826   -5.9578    0.0000 O   0  0  0  0  0  0  0  0  0  0  0  0
   14.2826   -7.9578    0.0000 C   0  0  0  0  0  0  0  0  0  0  0  0
   13.4166   -6.4578    0.0000 C   0  0  0  0  0  0  0  0  0  0  0  0
   13.4166   -7.4578    0.0000 C   0  0  0  0  0  0  0  0  0  0  0  0
   16.0147   -5.9578    0.0000 O   0  0  0  0  0  0  0  0  0  0  0  0
   16.0147   -7.9578    0.0000 O   0  0  0  0  0  0  0  0  0  0  0  0
   14.2826   -8.9578    0.0000 O   0  0  0  0  0  0  0  0  0  0  0  0
   12.5505   -5.9578    0.0000 C   0  0  0  0  0  0  0  0  0  0  0  0
   11.6845   -6.4578    0.0000 O   0  0  0  0  0  0  0  0  0  0  0  0
  1  2  1  0     0  0
  1  3  1  0     0  0
  2  4  1  0     0  0
  3  5  1  0     0  0
  4  6  1  0     0  0
  5  6  1  0     0  0
  1  7  1  1     0  0
  2  8  1  6     0  0
  4  9  1  1     0  0
  6 10  1  1     0  0
  5 11  1  1     0  0
 12 11  1  0     0  0
 13 14  1  0     0  0
 13 15  1  0     0  0
 14 16  1  0     0  0
 15 17  1  0     0  0
 16 18  1  0     0  0
 17 18  1  0     0  0
 13 19  1  6     0  0
 14 20  1  1     0  0
 16 21  1  1     0  0
 18  7  1  6     0  0
 17 22  1  1     0  0
 23 22  1  0     0  0
M  END
> <ID>
CHEBI:87201

> <NAME>
beta-D-Gal-(1->4)-alpha-D-Man

> <DEFINITION>
β-D-Gal-(1→4)-D-Man in which the anomeric configuration of the mannose residue is α.

> <STAR>
3

> <SYNONYM>
beta-D-Galp-(1->4)-alpha-D-Manp; beta-D-galactosyl-(1->4)-alpha-D-mannose; 4-O-beta-D-galactopyranosyl-alpha-D-mannopyranose

> <IUPAC_NAME>
beta-D-galactopyranosyl-(1->4)-alpha-D-mannopyranose

> <FORMULA>
C12H22O11

> <MASS>
342.29650

> <MONOISOTOPIC_MASS>
342.11621

> <CHARGE>
0

> <SMILES>
OC[C@H]1O[C@@H](O[C@H]2[C@H](O)[C@H](O)[C@@H](O)O[C@@H]2CO)[C@H](O)[C@@H](O)[C@H]1O

> <INCHI>
InChI=1S/C12H22O11/c13-1-3-5(15)6(16)9(19)12(22-3)23-10-4(2-14)21-11(20)8(18)7(10)17/h3-20H,1-2H2/t3-,4-,5+,6+,7-,8+,9-,10-,11+,12+/m1/s1

> <INCHIKEY>
GUBGYTABKSRVRQ-LVIVMJSQSA-N

> <CAS_REGISTRY_NUMBER>
101312-82-7

> <REAXYS_REGISTRY_NUMBER>
90838

> <CHEMIDPLUS>
101312-82-7

> <PUBMED_CITATION>
26017366

$$$$

Ketcher 08201509432D 1   1.00000     0.00000     0

 30 31  0     1  0            999 V2000
   24.3330   -5.7598    0.0000 C   0  0  0  0  0  0  0  0  0  0  0  0
   24.3330   -6.7598    0.0000 C   0  0  0  0  0  0  0  0  0  0  0  0
   23.4668   -5.2599    0.0000 O   0  0  0  0  0  0  0  0  0  0  0  0
   23.4668   -7.2600    0.0000 C   0  0  0  0  0  0  0  0  0  0  0  0
   22.6007   -5.7598    0.0000 C   0  0  0  0  0  0  0  0  0  0  0  0
   22.6007   -6.7598    0.0000 C   0  0  0  0  0  0  0  0  0  0  0  0
   25.1989   -5.2599    0.0000 O   0  0  0  0  0  0  0  0  0  0  0  0
   23.4668   -8.2600    0.0000 O   0  0  0  0  0  0  0  0  0  0  0  0
   21.7349   -7.2600    0.0000 O   0  0  0  0  0  0  0  0  0  0  0  0
   21.7349   -5.2599    0.0000 C   0  0  0  0  0  0  0  0  0  0  0  0
   25.1989   -7.2600    0.0000 N   0  0  0  0  0  0  0  0  0  0  0  0
   20.8689   -5.7599    0.0000 O   0  0  0  0  0  0  0  0  0  0  0  0
   26.0651   -6.7600    0.0000 C   0  0  0  0  0  0  0  0  0  0  0  0
   26.0651   -5.7600    0.0000 O   0  0  0  0  0  0  0  0  0  0  0  0
   26.9311   -7.2601    0.0000 C   0  0  0  0  0  0  0  0  0  0  0  0
   22.6008   -8.7600    0.0000 C   0  0  0  0  0  0  0  0  0  0  0  0
   22.6008   -9.7599    0.0000 C   0  0  0  0  0  0  0  0  0  0  0  0
   21.7348   -8.2600    0.0000 O   0  0  0  0  0  0  0  0  0  0  0  0
   21.7348  -10.2599    0.0000 C   0  0  0  0  0  0  0  0  0  0  0  0
   20.8688   -8.7600    0.0000 C   0  0  0  0  0  0  0  0  0  0  0  0
   20.8688   -9.7599    0.0000 C   0  0  0  0  0  0  0  0  0  0  0  0
   23.4668  -10.2599    0.0000 O   0  0  0  0  0  0  0  0  0  0  0  0
   21.7348  -11.2599    0.0000 O   0  0  0  0  0  0  0  0  0  0  0  0
   20.0027  -10.2599    0.0000 O   0  0  0  0  0  0  0  0  0  0  0  0
   20.0027   -8.2600    0.0000 C   0  0  0  0  0  0  0  0  0  0  0  0
   19.1366   -8.7600    0.0000 O   0  0  0  0  0  0  0  0  0  0  0  0
   17.4047   -8.7600    0.0000 O   0  0  0  0  0  0  0  0  0  0  0  0
   18.2708   -8.2600    0.0000 S   0  0  0  0  0  0  0  0  0  0  0  0
   17.7708   -7.3939    0.0000 O   0  0  0  0  0  0  0  0  0  0  0  0
   18.7706   -7.3939    0.0000 O   0  0  0  0  0  0  0  0  0  0  0  0
  1  2  1  0     0  0
  1  3  1  0     0  0
  2  4  1  0     0  0
  3  5  1  0     0  0
  4  6  1  0     0  0
  5  6  1  0     0  0
  1  7  1  1     0  0
  4  8  1  1     0  0
  6  9  1  6     0  0
  5 10  1  1     0  0
  2 11  1  6     0  0
 10 12  1  0     0  0
 14 13  2  0     0  0
 15 13  1  0     0  0
 11 13  1  0     0  0
 16 17  1  0     0  0
 16 18  1  0     0  0
 17 19  1  0     0  0
 18 20  1  0     0  0
 19 21  1  0     0  0
 20 21  1  0     0  0
 16  8  1  1     0  0
 17 22  1  6     0  0
 19 23  1  1     0  0
 21 24  1  1     0  0
 20 25  1  1     0  0
 25 26  1  0     0  0
 27 28  1  0     0  0
 28 26  1  0     0  0
 28 29  2  0     0  0
 30 28  2  0     0  0
M  END
> <ID>
CHEBI:87580

> <NAME>
beta-D-Galp6S-(1->3)-beta-D-GlcpNAc

> <DEFINITION>
An amino disaccharide that consists of N-acetyl-β-D-glucosamine having a 6-O-sulfo-β-D-galactosyl residue attached at position 3.

> <STAR>
3

> <SYNONYM>
beta-D-Gal6S-(1->3)-beta-D-GlcNAc; [6OSO3]Galbeta1-3GlcNAcbeta; 6-O-sulfo-beta-D-galactosyl-(1->3)-N-acetyl-beta-D-glucosamine; (6S)Galbeta1-3GlcNAcbeta; (6S)Galb1-3GlcNAcb

> <IUPAC_NAME>
6-O-sulfo-beta-D-galactopyranosyl-(1->3)-2-acetamido-2-deoxy-beta-D-glucopyranose; 2-acetamido-2-deoxy-3-O-(6-O-sulfo-beta-D-galactopyranosyl)-beta-D-glucopyranose

> <FORMULA>
C14H25NO14S

> <MASS>
463.41200

> <MONOISOTOPIC_MASS>
463.09958

> <CHARGE>
0

> <SMILES>
CC(=O)N[C@H]1[C@H](O)O[C@H](CO)[C@@H](O)[C@@H]1O[C@@H]1O[C@H](COS(O)(=O)=O)[C@H](O)[C@H](O)[C@H]1O

> <INCHI>
InChI=1S/C14H25NO14S/c1-4(17)15-7-12(9(19)5(2-16)27-13(7)22)29-14-11(21)10(20)8(18)6(28-14)3-26-30(23,24)25/h5-14,16,18-22H,2-3H2,1H3,(H,15,17)(H,23,24,25)/t5-,6-,7-,8+,9-,10+,11-,12-,13-,14+/m1/s1

> <INCHIKEY>
ZSSIKYJYLIRCAK-LODBTCKLSA-N

> <PUBMED_CITATION>
25568069

$$$$

Ketcher 08241517022D 1   1.00000     0.00000     0

 24 27  0     1  0            999 V2000
    2.1862   -0.1379    0.0000 C   0  0  0  0  0  0  0  0  0  0  0  0
    0.3691   -1.3290    0.0000 C   0  0  0  0  0  0  0  0  0  0  0  0
    2.1862    1.4801    0.0000 C   0  0  0  0  0  0  0  0  0  0  0  0
    0.3691    1.6710    0.0000 C   0  0  0  0  0  0  0  0  0  0  0  0
    2.7739    0.6710    0.0000 C   0  0  0  0  0  0  0  0  0  0  0  0
   -1.3630   -0.3290    0.0000 C   0  0  0  0  0  0  0  0  0  0  0  0
   -0.4970    1.1710    0.0000 C   0  0  0  0  0  0  0  0  0  0  0  0
   -0.4970   -1.8290    0.0000 C   0  0  0  0  0  0  0  0  0  0  0  0
    2.4951    2.4311    0.0000 O   0  0  0  0  0  0  0  0  0  0  0  0
   -1.3630   -1.3290    0.0000 C   0  0  0  0  0  0  0  0  0  0  0  0
   -2.2291    0.1710    0.0000 C   0  0  0  0  0  0  0  0  0  0  0  0
   -2.2291   -1.8290    0.0000 C   0  0  0  0  0  0  0  0  0  0  0  0
   -3.0950   -0.3290    0.0000 C   0  0  0  0  0  0  0  0  0  0  0  0
   -3.0950   -1.3290    0.0000 C   0  0  0  0  0  0  0  0  0  0  0  0
   -3.9611   -1.8290    0.0000 O   0  0  0  0  0  0  0  0  0  0  0  0
    0.3691   -0.3290    0.0000 C   0  0  0  0  0  0  0  0  0  0  0  0
    0.3691    0.6710    0.0000 H   0  0  0  0  0  0  0  0  0  0  0  0
   -0.4970    0.1710    0.0000 C   0  0  0  0  0  0  0  0  0  0  0  0
   -0.4970   -0.8290    0.0000 H   0  0  0  0  0  0  0  0  0  0  0  0
    1.2350    1.1710    0.0000 C   0  0  0  0  0  0  0  0  0  0  0  0
    1.2350    2.1710    0.0000 C   0  0  0  0  0  0  0  0  0  0  0  0
    1.2350    0.1710    0.0000 C   0  0  0  0  0  0  0  0  0  0  0  0
    1.2350   -0.8290    0.0000 H   0  0  0  0  0  0  0  0  0  0  0  0
   -2.2291   -2.8290    0.0000 O   0  0  0  0  0  0  0  0  0  0  0  0
 22 16  1  0     0  0
 22 20  1  0     0  0
 22  1  1  0     0  0
 16 18  1  0     0  0
 16  2  1  0     0  0
 20  3  1  0     0  0
 20  4  1  0     0  0
  5  1  1  0     0  0
 18  6  1  0     0  0
 18  7  1  0     0  0
  2  8  1  0     0  0
  3  9  2  0     0  0
  6 10  2  0     0  0
  6 11  1  0     0  0
 10 12  1  0     0  0
 11 13  2  0     0  0
 12 14  2  0     0  0
 14 15  1  0     0  0
  3  5  1  0     0  0
  4  7  1  0     0  0
  8 10  1  0     0  0
 13 14  1  0     0  0
 16 17  1  1     0  0
 18 19  1  6     0  0
 20 21  1  1     0  0
 22 23  1  6     0  0
 12 24  1  0     0  0
M  END
> <ID>
CHEBI:87602

> <NAME>
4-hydroxyestrone

> <DEFINITION>
A 4-hydroxy steroid that is estrone substituted by a hydroxy group at position 4.

> <STAR>
3

> <SYNONYM>
estra-1,3,5(10)-triene-3,4-diol-17-one; 4-hydroxyestrone; 3,4-dihydroxy-estra-1,3,5(10)-trien-17-one

> <IUPAC_NAME>
3,4-dihydroxyestra-1,3,5(10)-trien-17-one

> <FORMULA>
C18H22O3

> <MASS>
286.36550

> <MONOISOTOPIC_MASS>
286.15689

> <CHARGE>
0

> <SMILES>
C[C@]12CC[C@H]3[C@@H](CCc4c(O)c(O)ccc34)[C@@H]1CCC2=O

> <INCHI>
InChI=1S/C18H22O3/c1-18-9-8-11-10-4-6-15(19)17(21)13(10)3-2-12(11)14(18)5-7-16(18)20/h4,6,11-12,14,19,21H,2-3,5,7-9H2,1H3/t11-,12-,14+,18+/m1/s1

> <INCHIKEY>
XQZVQQZZOVBNLU-QDTBLXIISA-N

> <CAS_REGISTRY_NUMBER>
3131-23-5

> <REAXYS_REGISTRY_NUMBER>
2221832

> <CHEMIDPLUS>
3131-23-5

> <HMDB_ACCESSION>
HMDB0005895

> <PUBMED_CITATION>
11054642; 12865317; 15525577; 19926488; 29713726; 4616428; 6540166; 7414657; 7956900

$$$$

Ketcher 09071515172D 1   1.00000     0.00000     0

 40 42  0     1  0            999 V2000
   13.2729   -4.6988    0.0000 C   0  0  0  0  0  0  0  0  0  0  0  0
   13.2729   -5.6989    0.0000 C   0  0  0  0  0  0  0  0  0  0  0  0
   12.4069   -4.1988    0.0000 O   0  0  0  0  0  0  0  0  0  0  0  0
   12.4069   -6.1989    0.0000 C   0  0  0  0  0  0  0  0  0  0  0  0
   11.5409   -4.6988    0.0000 C   0  0  0  0  0  0  0  0  0  0  0  0
   11.5409   -5.6989    0.0000 C   0  0  0  0  0  0  0  0  0  0  0  0
   14.1389   -4.1988    0.0000 O   0  0  0  0  0  0  0  0  0  0  0  0
   14.1389   -6.1989    0.0000 O   0  0  0  0  0  0  0  0  0  0  0  0
   12.4068   -7.1989    0.0000 O   0  0  0  0  0  0  0  0  0  0  0  0
   10.6748   -6.1989    0.0000 O   0  0  0  0  0  0  0  0  0  0  0  0
   10.6748   -4.1988    0.0000 C   0  0  0  0  0  0  0  0  0  0  0  0
    9.8087   -4.6988    0.0000 O   0  0  0  0  0  0  0  0  0  0  0  0
   15.0051   -1.6988    0.0000 C   0  0  0  0  0  0  0  0  0  0  0  0
   15.0051   -2.6988    0.0000 C   0  0  0  0  0  0  0  0  0  0  0  0
   14.1390   -1.1988    0.0000 O   0  0  0  0  0  0  0  0  0  0  0  0
   14.1390   -3.1988    0.0000 C   0  0  0  0  0  0  0  0  0  0  0  0
   13.2730   -1.6988    0.0000 C   0  0  0  0  0  0  0  0  0  0  0  0
   13.2730   -2.6988    0.0000 C   0  0  0  0  0  0  0  0  0  0  0  0
   15.8711   -1.1988    0.0000 O   0  0  0  0  0  0  0  0  0  0  0  0
   15.8711   -3.1988    0.0000 N   0  0  0  0  0  0  0  0  0  0  0  0
   12.4070   -3.1988    0.0000 O   0  0  0  0  0  0  0  0  0  0  0  0
   12.4070   -1.1988    0.0000 C   0  0  0  0  0  0  0  0  0  0  0  0
   11.5409   -1.6988    0.0000 O   0  0  0  0  0  0  0  0  0  0  0  0
   15.8711   -4.1988    0.0000 C   0  0  0  0  0  0  0  0  0  0  0  0
   16.7371   -4.6988    0.0000 C   0  0  0  0  0  0  0  0  0  0  0  0
   15.0050   -4.6988    0.0000 O   0  0  0  0  0  0  0  0  0  0  0  0
   14.1390   -7.1989    0.0000 C   0  0  0  0  0  0  0  0  0  0  0  0
   15.0050   -7.6989    0.0000 C   0  0  0  0  0  0  0  0  0  0  0  0
   13.2730   -7.6989    0.0000 O   0  0  0  0  0  0  0  0  0  0  0  0
   15.0050   -8.6990    0.0000 C   0  0  0  0  0  0  0  0  0  0  0  0
   13.2730   -8.6990    0.0000 C   0  0  0  0  0  0  0  0  0  0  0  0
   14.1391   -9.1990    0.0000 C   0  0  0  0  0  0  0  0  0  0  0  0
   15.8711   -7.1989    0.0000 O   0  0  0  0  0  0  0  0  0  0  0  0
   15.8711   -9.1989    0.0000 O   0  0  0  0  0  0  0  0  0  0  0  0
   14.1391  -10.1990    0.0000 O   0  0  0  0  0  0  0  0  0  0  0  0
   12.4070   -9.1990    0.0000 C   0  0  0  0  0  0  0  0  0  0  0  0
    8.0769   -4.6988    0.0000 O   0  0  0  0  0  0  0  0  0  0  0  0
    8.9429   -4.1988    0.0000 S   0  0  0  0  0  0  0  0  0  0  0  0
    8.4427   -3.3330    0.0000 O   0  0  0  0  0  0  0  0  0  0  0  0
    9.4427   -3.3330    0.0000 O   0  0  0  0  0  0  0  0  0  0  0  0
  1  2  1  0     0  0
  1  3  1  0     0  0
  2  4  1  0     0  0
  3  5  1  0     0  0
  4  6  1  0     0  0
  5  6  1  0     0  0
  1  7  1  1     0  0
  2  8  1  6     0  0
  4  9  1  1     0  0
  6 10  1  1     0  0
  5 11  1  1     0  0
 12 11  1  0     0  0
 13 14  1  0     0  0
 13 15  1  0     0  0
 14 16  1  0     0  0
 15 17  1  0     0  0
 16 18  1  0     0  0
 17 18  1  0     0  0
 13 19  1  1     0  0
 14 20  1  6     0  0
 16  7  1  1     0  0
 18 21  1  6     0  0
 17 22  1  1     0  0
 23 22  1  0     0  0
 25 24  1  0     0  0
 26 24  2  0     0  0
 20 24  1  0     0  0
 27 28  1  0     0  0
 27 29  1  0     0  0
 28 30  1  0     0  0
 29 31  1  0     0  0
 30 32  1  0     0  0
 31 32  1  0     0  0
 27  8  1  1     0  0
 28 33  1  1     0  0
 30 34  1  6     0  0
 32 35  1  6     0  0
 31 36  1  6     0  0
 37 38  1  0     0  0
 38 12  1  0     0  0
 38 39  2  0     0  0
 40 38  2  0     0  0
M  END
> <ID>
CHEBI:87790

> <NAME>
alpha-L-Fucp-(1->2)-beta-D-Galp6S-(1->3)-D-GlcpNAc

> <DEFINITION>
A linear amino trisaccharide that consists of α-L-fucose, 6-sulfated β-D-galactose and N-acetyl-β-D-glucosamine units connected in sequence by (1→2) and (1→3) links, respectively.

> <STAR>
3

> <SYNONYM>
L-fucosyl-(1->2)-6-O-sulfo-beta-D-galactosyl-(1->3)-N-acetyl-beta-D-glucosamine; L-fucosyl-(1->2)-6-O-sulfo-beta-D-galactosyl-(1->3)-2-acetamido-2-deoxy-beta-D-glucose; Fucalpha1-2[6OSO3]Galbeta1-3GlcNAcbeta; Fuca1-2(6S)Galb1-3GlcNAcb; alpha-L-Fuc-(1->2)-beta-D-Gal6S-(1->3)-beta-D-GlcNAc; 6-deoxy-alpha-L-galactopyranosyl-(1->2)-6-O-sulfo-beta-D-galactopyranosyl-(1->3)-2-acetamido-2-deoxy-beta-D-glucopyranose

> <IUPAC_NAME>
L-fucopyranosyl-(1->2)-6-O-sulfo-beta-D-galactopyranosyl-(1->3)-2-acetamido-2-deoxy-beta-D-glucopyranose

> <FORMULA>
C20H35NO18S

> <MASS>
609.555

> <MONOISOTOPIC_MASS>
609.15748

> <CHARGE>
0

> <SMILES>
[C@@H]1([C@@H]([C@H]([C@H]([C@H](O1)COS(O)(=O)=O)O)O)O[C@H]2[C@H]([C@@H]([C@@H]([C@@H](O2)C)O)O)O)O[C@@H]3[C@H]([C@@H](O[C@@H]([C@H]3O)CO)O)NC(C)=O

> <INCHI>
InChI=1S/C20H35NO18S/c1-5-10(24)13(27)15(29)19(35-5)39-17-14(28)11(25)8(4-34-40(31,32)33)37-20(17)38-16-9(21-6(2)23)18(30)36-7(3-22)12(16)26/h5,7-20,22,24-30H,3-4H2,1-2H3,(H,21,23)(H,31,32,33)/t5-,7+,8+,9+,10+,11-,12+,13+,14-,15-,16+,17+,18+,19-,20-/m0/s1

> <INCHIKEY>
CSHCTMQSPWLOJR-QVPNGJTFSA-N

> <PUBMED_CITATION>
25568069

$$$$

Ketcher 09101510052D 1   1.00000     0.00000     0

 33 34  0     1  0            999 V2000
   14.3533  -16.2598    0.0000 C   0  0  0  0  0  0  0  0  0  0  0  0
   14.3533  -17.2598    0.0000 C   0  0  0  0  0  0  0  0  0  0  0  0
   13.4871  -15.7599    0.0000 O   0  0  0  0  0  0  0  0  0  0  0  0
   13.4871  -17.7600    0.0000 C   0  0  0  0  0  0  0  0  0  0  0  0
   12.6210  -16.2598    0.0000 C   0  0  0  0  0  0  0  0  0  0  0  0
   12.6210  -17.2598    0.0000 C   0  0  0  0  0  0  0  0  0  0  0  0
   15.2193  -15.7599    0.0000 O   0  0  0  0  0  0  0  0  0  0  0  0
   13.4871  -18.7600    0.0000 O   0  0  0  0  0  0  0  0  0  0  0  0
   11.7552  -17.7600    0.0000 O   0  0  0  0  0  0  0  0  0  0  0  0
   11.7552  -15.7599    0.0000 C   0  0  0  0  0  0  0  0  0  0  0  0
   15.2193  -18.7600    0.0000 C   0  0  0  0  0  0  0  0  0  0  0  0
   14.3533  -19.2599    0.0000 O   0  0  0  0  0  0  0  0  0  0  0  0
   15.2193  -17.7600    0.0000 N   0  0  0  0  0  0  0  0  0  0  0  0
   16.0854  -19.2599    0.0000 C   0  0  0  0  0  0  0  0  0  0  0  0
   10.8893  -18.2600    0.0000 C   0  0  0  0  0  0  0  0  0  0  0  0
   10.8893  -19.2599    0.0000 C   0  0  0  0  0  0  0  0  0  0  0  0
   10.0231  -17.7600    0.0000 O   0  0  0  0  0  0  0  0  0  0  0  0
   10.0231  -19.7599    0.0000 C   0  0  0  0  0  0  0  0  0  0  0  0
    9.1572  -18.2600    0.0000 C   0  0  0  0  0  0  0  0  0  0  0  0
    9.1572  -19.2599    0.0000 C   0  0  0  0  0  0  0  0  0  0  0  0
   11.7552  -19.7599    0.0000 N   0  0  0  0  0  0  0  0  0  0  0  0
   10.0231  -20.7599    0.0000 O   0  0  0  0  0  0  0  0  0  0  0  0
    8.2911  -19.7599    0.0000 O   0  0  0  0  0  0  0  0  0  0  0  0
    8.2911  -17.7600    0.0000 C   0  0  0  0  0  0  0  0  0  0  0  0
    7.4250  -18.2600    0.0000 O   0  0  0  0  0  0  0  0  0  0  0  0
   10.8893  -16.2599    0.0000 O   0  0  0  0  0  0  0  0  0  0  0  0
    5.6931  -18.2600    0.0000 O   0  0  0  0  0  0  0  0  0  0  0  0
    6.5591  -17.7600    0.0000 S   0  0  0  0  0  0  0  0  0  0  0  0
    6.0591  -16.8939    0.0000 O   0  0  0  0  0  0  0  0  0  0  0  0
    7.0589  -16.8939    0.0000 O   0  0  0  0  0  0  0  0  0  0  0  0
   11.7551  -20.7599    0.0000 C   0  0  0  0  0  0  0  0  0  0  0  0
   12.6212  -21.2600    0.0000 C   0  0  0  0  0  0  0  0  0  0  0  0
   10.8891  -21.2599    0.0000 O   0  0  0  0  0  0  0  0  0  0  0  0
  1  2  1  0     0  0
  1  3  1  0     0  0
  2  4  1  0     0  0
  3  5  1  0     0  0
  4  6  1  0     0  0
  5  6  1  0     0  0
  1  7  1  0     0  0
  4  8  1  1     0  0
  6  9  1  6     0  0
  5 10  1  1     0  0
 12 11  2  0     0  0
 13 11  1  0     0  0
 14 11  1  0     0  0
  2 13  1  6     0  0
 15 16  1  0     0  0
 15 17  1  0     0  0
 16 18  1  0     0  0
 17 19  1  0     0  0
 18 20  1  0     0  0
 19 20  1  0     0  0
 15  9  1  1     0  0
 16 21  1  6     0  0
 18 22  1  1     0  0
 20 23  1  1     0  0
 19 24  1  1     0  0
 24 25  1  0     0  0
 10 26  1  0     0  0
 27 28  1  0     0  0
 28 25  1  0     0  0
 28 29  2  0     0  0
 30 28  2  0     0  0
 32 31  1  0     0  0
 33 31  2  0     0  0
 21 31  1  0     0  0
M  END
> <ID>
CHEBI:87811

> <NAME>
beta-D-GalpNAc6S-(1->4)-D-GlcpNAc

> <DEFINITION>
An amino disaccharide that consists of N-acetyl-D-glucosamine having an N-acetyl-6-O-sulfo-β-D-galactosaminyl residue attached at O-4.

> <STAR>
3

> <SYNONYM>
N-acetyl-6-O-sulfo-beta-D-galactosaminyl-(1->4)-N-acetyl-D-glucosamine; [6OSO3]GalNAcbeta1-4GlcNAc; 2-acetamido-4-O-(2-acetamido-2-deoxy-6-O-sulfo-beta-D-galactopyranosyl)-2-deoxy-D-glucopyranose; (6S)GalNAcbeta1-4GlcNAc; (6S)GalNAcb1-4GlcNAc

> <IUPAC_NAME>
2-acetamido-2-deoxy-6-O-sulfo-beta-D-galactopyranosyl-(1->4)-2-acetamido-2-deoxy-D-glucopyranose

> <FORMULA>
C16H28N2O14S

> <MASS>
504.465

> <MONOISOTOPIC_MASS>
504.12612

> <CHARGE>
0

> <SMILES>
C1([C@@H]([C@H]([C@@H]([C@H](O1)CO)O[C@H]2[C@@H]([C@H]([C@H]([C@H](O2)COS(O)(=O)=O)O)O)NC(C)=O)O)NC(=O)C)O

> <INCHI>
InChI=1S/C16H28N2O14S/c1-5(20)17-9-13(24)14(7(3-19)30-15(9)25)32-16-10(18-6(2)21)12(23)11(22)8(31-16)4-29-33(26,27)28/h7-16,19,22-25H,3-4H2,1-2H3,(H,17,20)(H,18,21)(H,26,27,28)/t7-,8-,9-,10-,11+,12-,13-,14-,15?,16+/m1/s1

> <INCHIKEY>
MMPQUGBGPGMLGD-CAQKAZPESA-N

> <PUBMED_CITATION>
25568069

$$$$

Ketcher 09101510542D 1   1.00000     0.00000     0

 30 31  0     1  0            999 V2000
   14.3533  -16.2598    0.0000 C   0  0  0  0  0  0  0  0  0  0  0  0
   14.3533  -17.2598    0.0000 C   0  0  0  0  0  0  0  0  0  0  0  0
   13.4871  -15.7599    0.0000 O   0  0  0  0  0  0  0  0  0  0  0  0
   13.4871  -17.7600    0.0000 C   0  0  0  0  0  0  0  0  0  0  0  0
   12.6210  -16.2598    0.0000 C   0  0  0  0  0  0  0  0  0  0  0  0
   12.6210  -17.2598    0.0000 C   0  0  0  0  0  0  0  0  0  0  0  0
   15.2193  -15.7599    0.0000 O   0  0  0  0  0  0  0  0  0  0  0  0
   13.4871  -18.7600    0.0000 O   0  0  0  0  0  0  0  0  0  0  0  0
   11.7552  -17.7600    0.0000 O   0  0  0  0  0  0  0  0  0  0  0  0
   11.7552  -15.7599    0.0000 C   0  0  0  0  0  0  0  0  0  0  0  0
   15.2193  -18.7600    0.0000 C   0  0  0  0  0  0  0  0  0  0  0  0
   14.3533  -19.2599    0.0000 O   0  0  0  0  0  0  0  0  0  0  0  0
   15.2193  -17.7600    0.0000 N   0  0  0  0  0  0  0  0  0  0  0  0
   16.0854  -19.2599    0.0000 C   0  0  0  0  0  0  0  0  0  0  0  0
   10.8893  -18.2600    0.0000 C   0  0  0  0  0  0  0  0  0  0  0  0
   10.8893  -19.2599    0.0000 C   0  0  0  0  0  0  0  0  0  0  0  0
   10.0231  -17.7600    0.0000 O   0  0  0  0  0  0  0  0  0  0  0  0
   10.0231  -19.7599    0.0000 C   0  0  0  0  0  0  0  0  0  0  0  0
    9.1572  -18.2600    0.0000 C   0  0  0  0  0  0  0  0  0  0  0  0
    9.1572  -19.2599    0.0000 C   0  0  0  0  0  0  0  0  0  0  0  0
   11.7552  -19.7599    0.0000 O   0  0  0  0  0  0  0  0  0  0  0  0
   10.0231  -20.7599    0.0000 O   0  0  0  0  0  0  0  0  0  0  0  0
    8.2911  -19.7599    0.0000 O   0  0  0  0  0  0  0  0  0  0  0  0
    8.2911  -17.7600    0.0000 C   0  0  0  0  0  0  0  0  0  0  0  0
    7.4250  -18.2600    0.0000 O   0  0  0  0  0  0  0  0  0  0  0  0
   10.8893  -16.2599    0.0000 O   0  0  0  0  0  0  0  0  0  0  0  0
    6.5590  -17.7600    0.0000 P   0  0  0  0  0  0  0  0  0  0  0  0
    5.6929  -17.2600    0.0000 O   0  0  0  0  0  0  0  0  0  0  0  0
    6.0590  -18.6260    0.0000 O   0  0  0  0  0  0  0  0  0  0  0  0
    7.0590  -16.8939    0.0000 O   0  0  0  0  0  0  0  0  0  0  0  0
  1  2  1  0     0  0
  1  3  1  0     0  0
  2  4  1  0     0  0
  3  5  1  0     0  0
  4  6  1  0     0  0
  5  6  1  0     0  0
  1  7  1  1     0  0
  4  8  1  1     0  0
  6  9  1  6     0  0
  5 10  1  1     0  0
 12 11  2  0     0  0
 13 11  1  0     0  0
 14 11  1  0     0  0
  2 13  1  6     0  0
 15 16  1  0     0  0
 15 17  1  0     0  0
 16 18  1  0     0  0
 17 19  1  0     0  0
 18 20  1  0     0  0
 19 20  1  0     0  0
 15  9  1  1     0  0
 16 21  1  6     0  0
 18 22  1  1     0  0
 20 23  1  1     0  0
 19 24  1  1     0  0
 24 25  1  0     0  0
 10 26  1  0     0  0
 28 27  2  0     0  0
 29 27  1  0     0  0
 30 27  1  0     0  0
 25 27  1  0     0  0
M  END
> <ID>
CHEBI:87812

> <NAME>
beta-D-Galp6P-(1->4)-beta-D-GlcpNAc

> <DEFINITION>
A disaccharide phosphate that is N-acetylβ-D-glucosamine having a 6-O-phospho-β-D-galactosyl residue attached at O-4.

> <STAR>
3

> <SYNONYM>
beta-D-Gal6P-(1->4)-beta-D-GlcNAc; 6-O-phospho-beta-D-galactosyl-(1->4)-N-acetyl-beta-D-glucosamine; 2-acetamido-2-deoxy-4-O-(6-O-phosphono-beta-D-galactopyranosyl)-beta-D-glucopyranose; (6P)Galb1-4GlcNAcb

> <IUPAC_NAME>
6-O-phosphono-beta-D-galactopyranosyl-(1->4)-2-acetamido-2-deoxy-beta-D-glucopyranose

> <FORMULA>
C14H26NO14P

> <MASS>
463.329

> <MONOISOTOPIC_MASS>
463.10909

> <CHARGE>
0

> <SMILES>
[C@@H]1([C@@H]([C@H]([C@@H]([C@H](O1)CO)O[C@H]2[C@@H]([C@H]([C@H]([C@H](O2)COP(=O)(O)O)O)O)O)O)NC(=O)C)O

> <INCHI>
InChI=1S/C14H26NO14P/c1-4(17)15-7-9(19)12(5(2-16)27-13(7)22)29-14-11(21)10(20)8(18)6(28-14)3-26-30(23,24)25/h5-14,16,18-22H,2-3H2,1H3,(H,15,17)(H2,23,24,25)/t5-,6-,7-,8+,9-,10+,11-,12-,13-,14+/m1/s1

> <INCHIKEY>
ZWDSRVCSCUOVHF-LODBTCKLSA-N

> <PUBMED_CITATION>
25568069

$$$$

Ketcher 09101511232D 1   1.00000     0.00000     0

 48 51  0     1  0            999 V2000
   21.3351   -3.6386    0.0000 C   0  0  0  0  0  0  0  0  0  0  0  0
   21.3351   -4.6386    0.0000 C   0  0  0  0  0  0  0  0  0  0  0  0
   20.4690   -3.1386    0.0000 O   0  0  0  0  0  0  0  0  0  0  0  0
   20.4690   -5.1385    0.0000 C   0  0  0  0  0  0  0  0  0  0  0  0
   19.6031   -3.6386    0.0000 C   0  0  0  0  0  0  0  0  0  0  0  0
   19.6031   -4.6386    0.0000 C   0  0  0  0  0  0  0  0  0  0  0  0
   22.2011   -3.1386    0.0000 O   0  0  0  0  0  0  0  0  0  0  0  0
   22.2011   -5.1385    0.0000 O   0  0  0  0  0  0  0  0  0  0  0  0
   20.4690   -6.1385    0.0000 O   0  0  0  0  0  0  0  0  0  0  0  0
   18.7370   -5.1385    0.0000 O   0  0  0  0  0  0  0  0  0  0  0  0
   18.7370   -3.1386    0.0000 C   0  0  0  0  0  0  0  0  0  0  0  0
   17.8710   -3.6386    0.0000 O   0  0  0  0  0  0  0  0  0  0  0  0
   25.6651  -12.1387    0.0000 C   0  0  0  0  0  0  0  0  0  0  0  0
   26.5311  -12.6387    0.0000 C   0  0  0  0  0  0  0  0  0  0  0  0
   24.7990  -12.6387    0.0000 O   0  0  0  0  0  0  0  0  0  0  0  0
   26.5310  -13.6387    0.0000 C   0  0  0  0  0  0  0  0  0  0  0  0
   24.7990  -13.6387    0.0000 C   0  0  0  0  0  0  0  0  0  0  0  0
   25.6650  -14.1387    0.0000 C   0  0  0  0  0  0  0  0  0  0  0  0
   25.6651  -11.1387    0.0000 O   0  0  0  0  0  0  0  0  0  0  0  0
   27.3971  -12.1387    0.0000 O   0  0  0  0  0  0  0  0  0  0  0  0
   27.3970  -14.1388    0.0000 O   0  0  0  0  0  0  0  0  0  0  0  0
   25.6650  -15.1387    0.0000 O   0  0  0  0  0  0  0  0  0  0  0  0
   23.9330  -14.1387    0.0000 C   0  0  0  0  0  0  0  0  0  0  0  0
   23.9330  -15.1387    0.0000 O   0  0  0  0  0  0  0  0  0  0  0  0
   23.9331   -9.1386    0.0000 C   0  0  0  0  0  0  0  0  0  0  0  0
   24.7991   -9.6386    0.0000 C   0  0  0  0  0  0  0  0  0  0  0  0
   23.0670   -9.6387    0.0000 O   0  0  0  0  0  0  0  0  0  0  0  0
   24.7991  -10.6387    0.0000 C   0  0  0  0  0  0  0  0  0  0  0  0
   23.0670  -10.6386    0.0000 C   0  0  0  0  0  0  0  0  0  0  0  0
   23.9331  -11.1387    0.0000 C   0  0  0  0  0  0  0  0  0  0  0  0
   23.9331   -8.1386    0.0000 O   0  0  0  0  0  0  0  0  0  0  0  0
   25.6652   -9.1387    0.0000 O   0  0  0  0  0  0  0  0  0  0  0  0
   23.9331  -12.1387    0.0000 O   0  0  0  0  0  0  0  0  0  0  0  0
   22.2010  -11.1386    0.0000 C   0  0  0  0  0  0  0  0  0  0  0  0
   22.2010  -12.1386    0.0000 O   0  0  0  0  0  0  0  0  0  0  0  0
   22.2011   -6.1385    0.0000 C   0  0  0  0  0  0  0  0  0  0  0  0
   23.0671   -6.6385    0.0000 C   0  0  0  0  0  0  0  0  0  0  0  0
   21.3351   -6.6385    0.0000 O   0  0  0  0  0  0  0  0  0  0  0  0
   23.0671   -7.6386    0.0000 C   0  0  0  0  0  0  0  0  0  0  0  0
   21.3351   -7.6385    0.0000 C   0  0  0  0  0  0  0  0  0  0  0  0
   22.2011   -8.1385    0.0000 C   0  0  0  0  0  0  0  0  0  0  0  0
   23.9332   -6.1386    0.0000 N   0  0  0  0  0  0  0  0  0  0  0  0
   22.2010   -9.1385    0.0000 O   0  0  0  0  0  0  0  0  0  0  0  0
   20.4690   -8.1385    0.0000 C   0  0  0  0  0  0  0  0  0  0  0  0
   20.4690   -9.1385    0.0000 O   0  0  0  0  0  0  0  0  0  0  0  0
   24.7991   -6.6386    0.0000 C   0  0  0  0  0  0  0  0  0  0  0  0
   25.6652   -6.1386    0.0000 C   0  0  0  0  0  0  0  0  0  0  0  0
   24.7991   -7.6386    0.0000 O   0  0  0  0  0  0  0  0  0  0  0  0
  1  2  1  0     0  0
  1  3  1  0     0  0
  2  4  1  0     0  0
  3  5  1  0     0  0
  4  6  1  0     0  0
  5  6  1  0     0  0
  1  7  1  6     0  0
  2  8  1  1     0  0
  4  9  1  1     0  0
  6 10  1  6     0  0
  5 11  1  1     0  0
 12 11  1  0     0  0
 13 14  1  0     0  0
 13 15  1  0     0  0
 14 16  1  0     0  0
 15 17  1  0     0  0
 16 18  1  0     0  0
 17 18  1  0     0  0
 13 19  1  6     0  0
 14 20  1  6     0  0
 16 21  1  1     0  0
 18 22  1  1     0  0
 17 23  1  1     0  0
 24 23  1  0     0  0
 25 26  1  0     0  0
 25 27  1  0     0  0
 26 28  1  0     0  0
 27 29  1  0     0  0
 28 30  1  0     0  0
 29 30  1  0     0  0
 25 31  1  1     0  0
 26 32  1  6     0  0
 28 19  1  1     0  0
 30 33  1  1     0  0
 29 34  1  1     0  0
 35 34  1  0     0  0
 36 37  1  0     0  0
 36 38  1  0     0  0
 37 39  1  0     0  0
 38 40  1  0     0  0
 39 41  1  0     0  0
 40 41  1  0     0  0
 36  8  1  1     0  0
 37 42  1  6     0  0
 39 31  1  1     0  0
 41 43  1  6     0  0
 40 44  1  1     0  0
 45 44  1  0     0  0
 47 46  1  0     0  0
 48 46  2  0     0  0
 42 46  1  0     0  0
M  END
> <ID>
CHEBI:87813

> <NAME>
alpha-D-Galp-(1->3)-beta-D-Galp-(1->3)-beta-D-GlcpNAc-(1->2)-alpha-D-Manp

> <DEFINITION>
An amino tetrasaccharide comprising α-D-galactose, β-D-galactose, N-acetyl-β-D-glucosamine and (at the reducing end) α-D-mannose residues linked sequentially (1→3), (1→3) and (1→2).

> <STAR>
3

> <SYNONYM>
Galalpha1-3Galbeta1-3GlcNAcbeta1-2Manalpha; Gala1-3Galb1-3GlcNAcb1-2Mana; alpha-D-galactosyl-(1->3)-beta-D-galactosyl-(1->3)-N-acetyl-beta-D-glucosaminyl-(1->2)-alpha-D-mannose; alpha-D-Gal-(1->3)-beta-D-Gal-(1->3)-beta-D-GlcNAc-(1->2)-alpha-D-Man

> <IUPAC_NAME>
alpha-D-galactopyranosyl-(1->3)-beta-D-galactopyranosyl-(1->3)-2-acetamido-2-deoxy-beta-D-glucopyranosyl-(1->2)-alpha-D-mannopyranose

> <FORMULA>
C26H45NO21

> <MASS>
707.631

> <MONOISOTOPIC_MASS>
707.24841

> <CHARGE>
0

> <SMILES>
[C@H]1([C@H]([C@H]([C@@H]([C@H](O1)CO)O)O)O[C@H]2[C@@H]([C@H]([C@@H]([C@H](O2)CO)O)O[C@H]3[C@@H]([C@H]([C@H]([C@H](O3)CO)O)O[C@@H]4[C@@H]([C@H]([C@H]([C@H](O4)CO)O)O)O)O)NC(C)=O)O

> <INCHI>
InChI=1S/C26H45NO21/c1-6(32)27-11-20(14(35)9(4-30)43-24(11)48-22-17(38)13(34)7(2-28)42-23(22)41)46-26-19(40)21(15(36)10(5-31)45-26)47-25-18(39)16(37)12(33)8(3-29)44-25/h7-26,28-31,33-41H,2-5H2,1H3,(H,27,32)/t7-,8-,9-,10-,11-,12+,13-,14-,15+,16+,17+,18-,19-,20-,21+,22+,23+,24+,25-,26+/m1/s1

> <INCHIKEY>
QPKAZCFBRHBGTK-NBOBWHJFSA-N

> <PUBMED_CITATION>
25568069

$$$$

Ketcher 09101512512D 1   1.00000     0.00000     0

 40 42  0     1  0            999 V2000
    9.2607   -1.5422    0.0000 C   0  0  0  0  0  0  0  0  0  0  0  0
    9.2607   -2.5422    0.0000 C   0  0  0  0  0  0  0  0  0  0  0  0
    8.3946   -1.0422    0.0000 O   0  0  0  0  0  0  0  0  0  0  0  0
    8.3946   -3.0422    0.0000 C   0  0  0  0  0  0  0  0  0  0  0  0
    7.5287   -1.5422    0.0000 C   0  0  0  0  0  0  0  0  0  0  0  0
    7.5287   -2.5422    0.0000 C   0  0  0  0  0  0  0  0  0  0  0  0
   10.1267   -1.0422    0.0000 O   0  0  0  0  0  0  0  0  0  0  0  0
   10.1267   -3.0422    0.0000 O   0  0  0  0  0  0  0  0  0  0  0  0
    8.3946   -4.0422    0.0000 O   0  0  0  0  0  0  0  0  0  0  0  0
    6.6626   -3.0422    0.0000 O   0  0  0  0  0  0  0  0  0  0  0  0
    6.6626   -1.0422    0.0000 C   0  0  0  0  0  0  0  0  0  0  0  0
    5.7966   -1.5422    0.0000 O   0  0  0  0  0  0  0  0  0  0  0  0
   11.8588   -6.0422    0.0000 O   0  0  0  0  0  0  0  0  0  0  0  0
   10.1267   -4.0422    0.0000 C   0  0  0  0  0  0  0  0  0  0  0  0
   10.9927   -4.5422    0.0000 C   0  0  0  0  0  0  0  0  0  0  0  0
    9.2607   -4.5422    0.0000 O   0  0  0  0  0  0  0  0  0  0  0  0
   10.9927   -5.5422    0.0000 C   0  0  0  0  0  0  0  0  0  0  0  0
    9.2607   -5.5422    0.0000 C   0  0  0  0  0  0  0  0  0  0  0  0
   10.1267   -6.0422    0.0000 C   0  0  0  0  0  0  0  0  0  0  0  0
   11.8588   -4.0422    0.0000 N   0  0  0  0  0  0  0  0  0  0  0  0
   10.1267   -7.0422    0.0000 O   0  0  0  0  0  0  0  0  0  0  0  0
    8.3946   -6.0422    0.0000 C   0  0  0  0  0  0  0  0  0  0  0  0
    8.3946   -7.0422    0.0000 O   0  0  0  0  0  0  0  0  0  0  0  0
   12.7248   -4.5422    0.0000 C   0  0  0  0  0  0  0  0  0  0  0  0
   13.5909   -4.0423    0.0000 C   0  0  0  0  0  0  0  0  0  0  0  0
   12.7248   -5.5422    0.0000 O   0  0  0  0  0  0  0  0  0  0  0  0
   10.1267   -8.0422    0.0000 C   0  0  0  0  0  0  0  0  0  0  0  0
   10.9927   -8.5422    0.0000 C   0  0  0  0  0  0  0  0  0  0  0  0
    9.2606   -8.5422    0.0000 O   0  0  0  0  0  0  0  0  0  0  0  0
   10.9927   -9.5422    0.0000 C   0  0  0  0  0  0  0  0  0  0  0  0
    9.2606   -9.5422    0.0000 C   0  0  0  0  0  0  0  0  0  0  0  0
   10.1267  -10.0422    0.0000 C   0  0  0  0  0  0  0  0  0  0  0  0
   11.8588   -8.0422    0.0000 N   0  0  0  0  0  0  0  0  0  0  0  0
   11.8587  -10.0423    0.0000 O   0  0  0  0  0  0  0  0  0  0  0  0
   10.1266  -11.0422    0.0000 O   0  0  0  0  0  0  0  0  0  0  0  0
    8.3946  -10.0422    0.0000 C   0  0  0  0  0  0  0  0  0  0  0  0
    8.3946  -11.0422    0.0000 O   0  0  0  0  0  0  0  0  0  0  0  0
   12.7248   -8.5422    0.0000 C   0  0  0  0  0  0  0  0  0  0  0  0
   13.5908   -8.0423    0.0000 C   0  0  0  0  0  0  0  0  0  0  0  0
   12.7247   -9.5422    0.0000 O   0  0  0  0  0  0  0  0  0  0  0  0
  1  2  1  0     0  0
  1  3  1  0     0  0
  2  4  1  0     0  0
  3  5  1  0     0  0
  4  6  1  0     0  0
  5  6  1  0     0  0
  1  7  1  6     0  0
  2  8  1  1     0  0
  4  9  1  1     0  0
  6 10  1  6     0  0
  5 11  1  1     0  0
 12 11  1  0     0  0
 14 15  1  0     0  0
 14 16  1  0     0  0
 15 17  1  0     0  0
 16 18  1  0     0  0
 17 19  1  0     0  0
 18 19  1  0     0  0
 14  8  1  1     0  0
 15 20  1  6     0  0
 17 13  1  1     0  0
 19 21  1  6     0  0
 18 22  1  1     0  0
 23 22  1  0     0  0
 25 24  1  0     0  0
 26 24  2  0     0  0
 20 24  1  0     0  0
 27 28  1  0     0  0
 27 29  1  0     0  0
 28 30  1  0     0  0
 29 31  1  0     0  0
 30 32  1  0     0  0
 31 32  1  0     0  0
 27 21  1  1     0  0
 28 33  1  6     0  0
 30 34  1  1     0  0
 32 35  1  1     0  0
 31 36  1  1     0  0
 37 36  1  0     0  0
 39 38  1  0     0  0
 40 38  2  0     0  0
 33 38  1  0     0  0
M  END
> <ID>
CHEBI:87814

> <NAME>
beta-D-GalpNAc-(1->4)-beta-D-GlcpNAc-alpha-D-(1->2)-Manp

> <DEFINITION>
An amino trisaccharide comprising N-acetyl-β-D-galactosaminyl, N-acetyl-β-D-glucosaminyl and α-D-mannose residues linked sequentially (1→4) and (1→2).

> <STAR>
3

> <SYNONYM>
N-acetyl-beta-D-galactosaminyl-(1->4)-N-acetyl-beta-D-glucosaminyl-(1->2)-alpha-D-mannose; GalNAcbeta1-4GlcNAcbeta1-2Manalpha; GalNAcb1-4GlcNAcb1-2Mana; beta-D-GalNAc-(1->4)-beta-D-GlcNAc-alpha-D-(1->2)-Man

> <IUPAC_NAME>
2-acetamido-2-deoxy-beta-D-galactopyranosyl-(1->4)-2-acetamido-2-deoxy-beta-D-glucopyranosyl-(1->2)-alpha-D-mannopyranose

> <FORMULA>
C22H38N2O16

> <MASS>
586.542

> <MONOISOTOPIC_MASS>
586.22213

> <CHARGE>
0

> <SMILES>
[C@H]1([C@H]([C@H]([C@@H]([C@H](O1)CO)O)O)O[C@H]2[C@@H]([C@H]([C@@H]([C@H](O2)CO)O[C@H]3[C@@H]([C@H]([C@H]([C@H](O3)CO)O)O)NC(C)=O)O)NC(C)=O)O

> <INCHI>
InChI=1S/C22H38N2O16/c1-6(28)23-11-15(32)13(30)9(4-26)37-21(11)39-18-10(5-27)38-22(12(16(18)33)24-7(2)29)40-19-17(34)14(31)8(3-25)36-20(19)35/h8-22,25-27,30-35H,3-5H2,1-2H3,(H,23,28)(H,24,29)/t8-,9-,10-,11-,12-,13+,14-,15-,16-,17+,18-,19+,20+,21+,22+/m1/s1

> <INCHIKEY>
UYGRYXWJTJIXNK-JLWXWQNNSA-N

> <PUBMED_CITATION>
25568069

$$$$

Ketcher 09221513202D 1   1.00000     0.00000     0

 47 50  0     1  0            999 V2000
   20.4315   -4.8072    0.0000 C   0  0  0  0  0  0  0  0  0  0  0  0
   20.4315   -5.8072    0.0000 C   0  0  0  0  0  0  0  0  0  0  0  0
   19.5654   -4.3072    0.0000 O   0  0  0  0  0  0  0  0  0  0  0  0
   19.5654   -6.3072    0.0000 C   0  0  0  0  0  0  0  0  0  0  0  0
   18.6994   -4.8072    0.0000 C   0  0  0  0  0  0  0  0  0  0  0  0
   18.6994   -5.8072    0.0000 C   0  0  0  0  0  0  0  0  0  0  0  0
   21.2975   -4.3072    0.0000 O   0  0  0  0  0  0  0  0  0  0  0  0
   21.2975   -6.3072    0.0000 O   0  0  0  0  0  0  0  0  0  0  0  0
   19.5654   -7.3072    0.0000 O   0  0  0  0  0  0  0  0  0  0  0  0
   17.8334   -6.3072    0.0000 O   0  0  0  0  0  0  0  0  0  0  0  0
   17.8334   -4.3072    0.0000 C   0  0  0  0  0  0  0  0  0  0  0  0
   16.9673   -4.8072    0.0000 O   0  0  0  0  0  0  0  0  0  0  0  0
   21.2974  -11.3072    0.0000 C   0  0  0  0  0  0  0  0  0  0  0  0
   22.1634  -11.8072    0.0000 C   0  0  0  0  0  0  0  0  0  0  0  0
   20.4314  -11.8072    0.0000 O   0  0  0  0  0  0  0  0  0  0  0  0
   22.1634  -12.8073    0.0000 C   0  0  0  0  0  0  0  0  0  0  0  0
   20.4314  -12.8072    0.0000 C   0  0  0  0  0  0  0  0  0  0  0  0
   21.2974  -13.3072    0.0000 C   0  0  0  0  0  0  0  0  0  0  0  0
   21.2974  -10.3072    0.0000 O   0  0  0  0  0  0  0  0  0  0  0  0
   23.0295  -11.3072    0.0000 O   0  0  0  0  0  0  0  0  0  0  0  0
   23.0294  -13.3073    0.0000 O   0  0  0  0  0  0  0  0  0  0  0  0
   21.2973  -14.3072    0.0000 O   0  0  0  0  0  0  0  0  0  0  0  0
   19.5653  -13.3072    0.0000 C   0  0  0  0  0  0  0  0  0  0  0  0
   21.2975   -7.3072    0.0000 C   0  0  0  0  0  0  0  0  0  0  0  0
   22.1635   -7.8072    0.0000 C   0  0  0  0  0  0  0  0  0  0  0  0
   20.4315   -7.8072    0.0000 O   0  0  0  0  0  0  0  0  0  0  0  0
   22.1635   -8.8072    0.0000 C   0  0  0  0  0  0  0  0  0  0  0  0
   20.4315   -8.8072    0.0000 C   0  0  0  0  0  0  0  0  0  0  0  0
   21.2975   -9.3072    0.0000 C   0  0  0  0  0  0  0  0  0  0  0  0
   23.0295   -7.3072    0.0000 N   0  0  0  0  0  0  0  0  0  0  0  0
   23.0295   -9.3073    0.0000 O   0  0  0  0  0  0  0  0  0  0  0  0
   19.5654   -9.3072    0.0000 C   0  0  0  0  0  0  0  0  0  0  0  0
   23.0296   -6.3073    0.0000 C   0  0  0  0  0  0  0  0  0  0  0  0
   22.1636   -5.8072    0.0000 O   0  0  0  0  0  0  0  0  0  0  0  0
   23.8956   -5.8073    0.0000 C   0  0  0  0  0  0  0  0  0  0  0  0
   18.6994   -8.8072    0.0000 O   0  0  0  0  0  0  0  0  0  0  0  0
   23.8955   -9.8072    0.0000 C   0  0  0  0  0  0  0  0  0  0  0  0
   24.7615   -9.3072    0.0000 C   0  0  0  0  0  0  0  0  0  0  0  0
   23.8955  -10.8073    0.0000 O   0  0  0  0  0  0  0  0  0  0  0  0
   25.6275   -9.8073    0.0000 C   0  0  0  0  0  0  0  0  0  0  0  0
   24.7615  -11.3073    0.0000 C   0  0  0  0  0  0  0  0  0  0  0  0
   25.6275  -10.8072    0.0000 C   0  0  0  0  0  0  0  0  0  0  0  0
   24.7615   -8.3072    0.0000 O   0  0  0  0  0  0  0  0  0  0  0  0
   26.4936   -9.3073    0.0000 O   0  0  0  0  0  0  0  0  0  0  0  0
   26.4935  -11.3072    0.0000 O   0  0  0  0  0  0  0  0  0  0  0  0
   24.7615  -12.3073    0.0000 C   0  0  0  0  0  0  0  0  0  0  0  0
   25.6276  -12.8072    0.0000 O   0  0  0  0  0  0  0  0  0  0  0  0
  1  2  1  0     0  0
  1  3  1  0     0  0
  2  4  1  0     0  0
  3  5  1  0     0  0
  4  6  1  0     0  0
  5  6  1  0     0  0
  1  7  1  6     0  0
  2  8  1  1     0  0
  4  9  1  1     0  0
  6 10  1  6     0  0
  5 11  1  1     0  0
 12 11  1  0     0  0
 13 14  1  0     0  0
 13 15  1  0     0  0
 14 16  1  0     0  0
 15 17  1  0     0  0
 16 18  1  0     0  0
 17 18  1  0     0  0
 13 19  1  1     0  0
 14 20  1  1     0  0
 16 21  1  6     0  0
 18 22  1  6     0  0
 17 23  1  6     0  0
 24 25  1  0     0  0
 24 26  1  0     0  0
 25 27  1  0     0  0
 26 28  1  0     0  0
 27 29  1  0     0  0
 28 29  1  0     0  0
 24  8  1  1     0  0
 25 30  1  6     0  0
 27 31  1  1     0  0
 29 19  1  6     0  0
 28 32  1  1     0  0
 34 33  2  0     0  0
 35 33  1  0     0  0
 30 33  1  0     0  0
 32 36  1  0     0  0
 37 38  1  0     0  0
 37 39  1  0     0  0
 38 40  1  0     0  0
 39 41  1  0     0  0
 40 42  1  0     0  0
 41 42  1  0     0  0
 37 31  1  1     0  0
 38 43  1  6     0  0
 40 44  1  1     0  0
 42 45  1  1     0  0
 41 46  1  1     0  0
 47 46  1  0     0  0
M  END
> <ID>
CHEBI:87993

> <NAME>
alpha-L-Fucp-(1->4)-[beta-D-Galp-(1->3)]-beta-D-GlcpNAc-(1->2)-alpha-D-Manp

> <DEFINITION>
A branched amino tetrasaccharide consisting of a linear trisaccharide derivative of α-L-fucose, N-acetyl-β-D-glucosamine and (at the reducing end) α-D-mannose residues linked sequentially (1→4) and (1→2), to the N-acetyl-β-D-glucosamine residue of which is also linked (1→3) a β-D-galactose residue.

> <STAR>
3

> <SYNONYM>
Fucalpha1-4(Galbeta1-3)GlcNAcbeta1-2Manalpha; Fuca1-4(Galb1-3)GlcNAcb1-2Mana; alpha-L-fucosyl-(1->4)-[beta-D-galactosyl-(1->3)]-N-acetyl-beta-D-glucosaminyl-(1->2)-alpha-D-mannose; alpha-L-Fuc-(1->4)-[beta-D-Gal-(1->3)]-beta-D-GlcNAc-(1->2)-alpha-D-Man; 6-deoxy-alpha-L-galactopyranosyl-(1->4)-[beta-D-galactopyranosyl-(1->3)]-2-acetamido-2-deoxy-beta-D-glucopyranosyl-(1->2)-alpha-D-mannopyranose

> <IUPAC_NAME>
alpha-L-fucopyranosyl-(1->4)-[beta-D-galactopyranosyl-(1->3)]-2-acetamido-2-deoxy-beta-D-glucopyranosyl-(1->2)-alpha-D-mannopyranose

> <FORMULA>
C26H45NO20

> <MASS>
691.631

> <MONOISOTOPIC_MASS>
691.25349

> <CHARGE>
0

> <SMILES>
[C@H]1([C@H]([C@H]([C@@H]([C@H](O1)CO)O)O)O[C@H]2[C@@H]([C@H]([C@@H]([C@H](O2)CO)O[C@H]3[C@H]([C@@H]([C@@H]([C@@H](O3)C)O)O)O)O[C@H]4[C@@H]([C@H]([C@H]([C@H](O4)CO)O)O)O)NC(=O)C)O

> <INCHI>
InChI=1S/C26H45NO20/c1-6-12(32)15(35)18(38)25(41-6)45-20-10(5-30)44-24(47-22-17(37)14(34)8(3-28)42-23(22)40)11(27-7(2)31)21(20)46-26-19(39)16(36)13(33)9(4-29)43-26/h6,8-26,28-30,32-40H,3-5H2,1-2H3,(H,27,31)/t6-,8+,9+,10+,11+,12+,13-,14+,15+,16-,17-,18-,19+,20+,21+,22-,23-,24-,25-,26-/m0/s1

> <INCHIKEY>
PMHFFQOTSIYZFG-FCGKUBTCSA-N

> <PUBMED_CITATION>
25568069

$$$$

Ketcher 07031515142D 1   1.00000     0.00000     0

 28 31  0     1  0            999 V2000
   19.2214   -3.9890    0.0000 F   0  0  0  0  0  0  0  0  0  0  0  0
   22.6855   -2.9890    0.0000 O   0  0  0  0  0  0  0  0  0  0  0  0
   25.2835   -4.4889    0.0000 O   0  0  0  0  0  0  0  0  0  0  0  0
   20.9534   -5.9890    0.0000 C   0  0  0  0  0  0  0  0  0  0  0  0
   20.0874   -5.4890    0.0000 C   0  0  0  0  0  0  0  0  0  0  0  0
   20.0874   -4.4890    0.0000 C   0  0  0  0  0  0  0  0  0  0  0  0
   20.9534   -3.9890    0.0000 C   0  0  0  0  0  0  0  0  0  0  0  0
   21.8195   -4.4890    0.0000 C   0  0  0  0  0  0  0  0  0  0  0  0
   21.8195   -5.4890    0.0000 C   0  0  0  0  0  0  0  0  0  0  0  0
   22.6855   -5.9890    0.0000 N   0  0  0  0  0  0  0  0  0  0  0  0
   22.6855   -3.9890    0.0000 C   0  0  0  0  0  0  0  0  0  0  0  0
   23.5516   -4.4890    0.0000 C   0  0  0  0  0  0  0  0  0  0  0  0
   23.5516   -5.4890    0.0000 C   0  0  0  0  0  0  0  0  0  0  0  0
   22.6855   -6.9890    0.0000 C   0  0  0  0  0  0  0  0  0  0  0  0
   23.1855   -7.8551    0.0000 C   0  0  0  0  0  0  0  0  0  0  0  0
   22.1855   -7.8551    0.0000 C   0  0  0  0  0  0  0  0  0  0  0  0
   18.3554   -7.4891    0.0000 C   0  0  0  0  0  0  0  0  0  0  0  0
   17.4893   -6.9890    0.0000 N   0  0  0  0  0  0  0  0  0  0  0  0
   17.4893   -5.9890    0.0000 C   0  0  0  0  0  0  0  0  0  0  0  0
   18.3554   -5.4890    0.0000 C   0  0  0  0  0  0  0  0  0  0  0  0
   19.2214   -5.9890    0.0000 N   0  0  0  0  0  0  0  0  0  0  0  0
   19.2214   -6.9890    0.0000 C   0  0  0  0  0  0  0  0  0  0  0  0
   18.3554   -8.4890    0.0000 C   0  0  0  0  0  0  0  0  0  0  0  0
   16.6233   -5.4890    0.0000 C   0  0  0  0  0  0  0  0  0  0  0  0
   20.9534   -2.9890    0.0000 N   0  0  0  0  0  0  0  0  0  0  0  0
   24.4176   -3.9890    0.0000 C   0  0  0  0  0  0  0  0  0  0  0  0
   24.4176   -2.9889    0.0000 O   0  0  0  0  0  0  0  0  0  0  0  0
   20.9534   -6.9890    0.0000 F   0  0  0  0  0  0  0  0  0  0  0  0
  4  5  2  0     0  0
  4  9  1  0     0  0
  5  6  1  0     0  0
  6  7  2  0     0  0
  7  8  1  0     0  0
 10  9  1  0     0  0
 10 13  1  0     0  0
  9  8  2  0     0  0
  8 11  1  0     0  0
 11 12  1  0     0  0
 12 13  2  0     0  0
 14 10  1  0     0  0
 15 14  1  0     0  0
 16 14  1  0     0  0
 15 16  1  0     0  0
 17 18  1  0     0  0
 17 22  1  0     0  0
 18 19  1  0     0  0
 19 20  1  0     0  0
 20 21  1  0     0  0
 21 22  1  0     0  0
  5 21  1  0     0  0
 17 23  1  1     0  0
 19 24  1  1     0  0
 25  7  1  0     0  0
 26 12  1  0     0  0
  3 26  1  0     0  0
 27 26  2  0     0  0
  2 11  2  0     0  0
  1  6  1  0     0  0
 28  4  1  0     0  0
M  END
> <ID>
CHEBI:9212

> <NAME>
sparfloxacin

> <STAR>
3

> <SYNONYM>
Sparfloxacin; cis-5-Amino-1-cyclopropyl-7-(3,5-dimethyl-1-piperazinyl)-6,8-difluoro-1,4-dihydro-4-oxo-3-quinolinecarboxylic acid

> <IUPAC_NAME>
5-amino-1-cyclopropyl-7-[(3R,5S)-3,5-dimethylpiperazin-1-yl]-6,8-difluoro-4-oxo-1,4-dihydroquinoline-3-carboxylic acid

> <FORMULA>
C19H22F2N4O3

> <MASS>
392.39980

> <MONOISOTOPIC_MASS>
392.16600

> <CHARGE>
0

> <SMILES>
C[C@H]1CN(C[C@@H](C)N1)c1c(F)c(N)c2c(c1F)n(cc(C(O)=O)c2=O)C1CC1

> <INCHI>
InChI=1S/C19H22F2N4O3/c1-8-5-24(6-9(2)23-8)17-13(20)15(22)12-16(14(17)21)25(10-3-4-10)7-11(18(12)26)19(27)28/h7-10,23H,3-6,22H2,1-2H3,(H,27,28)/t8-,9+

> <INCHIKEY>
DZZWHBIBMUVIIW-DTORHVGOSA-N

> <BEILSTEIN_REGISTRY_NUMBER>
3658018

> <CAS_REGISTRY_NUMBER>
110871-86-8

> <CHEMIDPLUS>
110871-86-8

> <DRUGBANK_ACCESSION>
DB01208

> <KEGG_COMPOUND_ACCESSION>
C07662

> <KEGG_DRUG_ACCESSION>
D00590

> <LINCS_ACCESSION>
LSM-5251

> <WIKIPEDIA_ACCESSION>
Sparfloxacin

$$$$

Marvin  01241114412D          

 27 29  0  0  0  0            999 V2000
   10.0986   -3.3658    0.0000 C   0  0  0  0  0  0  0  0  0  0  0  0
   10.8132   -2.9812    0.0000 O   0  0  0  0  0  0  0  0  0  0  0  0
    9.3842   -2.9812    0.0000 C   0  0  0  0  0  0  0  0  0  0  0  0
    9.3842   -2.1561    0.0000 C   0  0  0  0  0  0  0  0  0  0  0  0
   10.0986   -4.2188    0.0000 N   0  0  0  0  0  0  0  0  0  0  0  0
   10.8132   -6.2813    0.0000 N   0  0  0  0  0  0  0  0  0  0  0  0
   10.8132   -4.6313    0.0000 C   0  0  0  0  0  0  0  0  0  0  0  0
   11.5277   -5.0438    0.0000 C   0  0  0  0  0  0  0  0  0  0  0  0
   10.0988   -5.0438    0.0000 C   0  0  0  0  0  0  0  0  0  0  0  0
    9.3842   -4.6313    0.0000 C   0  0  0  0  0  0  0  0  0  0  0  0
   10.0988   -5.8688    0.0000 C   0  0  0  0  0  0  0  0  0  0  0  0
   11.5277   -5.8688    0.0000 C   0  0  0  0  0  0  0  0  0  0  0  0
   10.8132   -7.1063    0.0000 C   0  0  0  0  0  0  0  0  0  0  0  0
   11.5277   -7.5188    0.0000 C   0  0  0  0  0  0  0  0  0  0  0  0
   11.5277   -8.3438    0.0000 C   0  0  0  0  0  0  0  0  0  0  0  0
    9.3842   -5.4563    0.0000 C   0  0  0  0  0  0  0  0  0  0  0  0
    8.6698   -4.2188    0.0000 C   0  0  0  0  0  0  0  0  0  0  0  0
    8.6698   -5.8688    0.0000 C   0  0  0  0  0  0  0  0  0  0  0  0
    7.9552   -4.6314    0.0000 C   0  0  0  0  0  0  0  0  0  0  0  0
    7.9554   -5.4564    0.0000 C   0  0  0  0  0  0  0  0  0  0  0  0
   11.3965   -4.0480    0.0000 C   0  0  0  0  0  0  0  0  0  0  0  0
   12.1934   -4.2615    0.0000 O   0  0  0  0  0  0  0  0  0  0  0  0
   12.7768   -3.6781    0.0000 C   0  0  0  0  0  0  0  0  0  0  0  0
   12.1951   -8.8287    0.0000 S   0  0  0  0  0  0  0  0  0  0  0  0
   11.9402   -9.6132    0.0000 C   0  0  0  0  0  0  0  0  0  0  0  0
   10.8603   -8.8287    0.0000 C   0  0  0  0  0  0  0  0  0  0  0  0
   11.1152   -9.6132    0.0000 C   0  0  0  0  0  0  0  0  0  0  0  0
  2  1  2  0  0  0  0
  3  1  1  0  0  0  0
  3  4  1  0  0  0  0
 10  5  1  0  0  0  0
 11  6  1  0  0  0  0
 13  6  1  0  0  0  0
 12  6  1  0  0  0  0
  8  7  1  0  0  0  0
  9  7  1  0  0  0  0
 12  8  1  0  0  0  0
 11  9  1  0  0  0  0
 16 10  2  0  0  0  0
 17 10  1  0  0  0  0
 14 13  1  0  0  0  0
 15 14  1  0  0  0  0
 18 16  1  0  0  0  0
 19 17  2  0  0  0  0
 20 18  2  0  0  0  0
 20 19  1  0  0  0  0
  7  5  1  0  0  0  0
  7 21  1  0  0  0  0
 21 22  1  0  0  0  0
 22 23  1  0  0  0  0
  1  5  1  0  0  0  0
 24 15  1  0  0  0  0
 26 15  2  0  0  0  0
 25 24  1  0  0  0  0
 27 25  2  0  0  0  0
 27 26  1  0  0  0  0
M  END
> <ID>
CHEBI:9316

> <NAME>
sufentanil

> <DEFINITION>
An anilide resulting from the formal condensation of the aryl amino group of 4-(methoxymethyl)-N-phenyl-1-[2-(2-thienyl)ethyl]piperidin-4-amine with propanoic acid.

> <STAR>
3

> <SYNONYM>
Sufentanyl; N-(4-(Methoxymethyl)-1-(2-(2-thienyl)ethyl)-4-piperidyl)propionanilide; N-(4-(Methoxymethyl)-1-(2-(2-thienyl)ethyl)-4-piperidinyl)-N-phenylpropanamide

> <IUPAC_NAME>
N-{4-(methoxymethyl)-1-[2-(2-thienyl)ethyl]piperidin-4-yl}-N-phenylpropanamide

> <INN>
sufentanilum; sufentanil

> <FORMULA>
C22H30N2O2S

> <MASS>
386.55100

> <MONOISOTOPIC_MASS>
386.20280

> <CHARGE>
0

> <SMILES>
CCC(=O)N(c1ccccc1)C1(CCN(CCc2cccs2)CC1)COC

> <INCHI>
InChI=1S/C22H30N2O2S/c1-3-21(25)24(19-8-5-4-6-9-19)22(18-26-2)12-15-23(16-13-22)14-11-20-10-7-17-27-20/h4-10,17H,3,11-16,18H2,1-2H3

> <INCHIKEY>
GGCSSNBKKAUURC-UHFFFAOYSA-N

> <CAS_REGISTRY_NUMBER>
56030-54-7

> <REAXYS_REGISTRY_NUMBER>
499558

> <CHEMIDPLUS>
56030-54-7

> <DRUGBANK_ACCESSION>
DB00708

> <HMDB_ACCESSION>
HMDB0014846

> <KEGG_COMPOUND_ACCESSION>
C08022

> <KEGG_DRUG_ACCESSION>
D05938

> <WIKIPEDIA_ACCESSION>
Sufentanil

> <PUBMED_CITATION>
10628901; 10945855; 11137863; 11504823; 15475572; 15828831; 16621415; 17118343; 9580589

$$$$

Marvin  07070810212D          

 21 22  0  0  0  0            999 V2000
    1.4408   -2.6063    0.0000 C   0  0  0  0  0  0  0  0  0  0  0  0
    2.1581   -2.1987    0.0000 C   0  0  0  0  0  0  0  0  0  0  0  0
    1.4522   -0.9563    0.0000 C   0  0  0  0  0  0  0  0  0  0  0  0
    0.7349   -1.3639    0.0000 C   0  0  0  0  0  0  0  0  0  0  0  0
    2.1638   -1.3737    0.0000 C   0  0  0  0  0  0  0  0  0  0  0  0
    2.8811   -0.9661    0.0000 N   0  0  0  0  0  0  0  0  0  0  0  0
    0.7292   -2.1889    0.0000 C   0  0  0  0  0  0  0  0  0  0  0  0
    0.5913   -3.1838    0.0000 O   0  0  0  0  0  0  0  0  0  0  0  0
    0.0119   -2.5965    0.0000 S   0  0  3  0  0  0  0  0  0  0  0  0
   -0.5754   -3.1758    0.0000 O   0  0  0  0  0  0  0  0  0  0  0  0
   -0.6997   -2.1791    0.0000 N   0  0  0  0  0  0  0  0  0  0  0  0
   -1.4170   -2.5866    0.0000 C   0  0  0  0  0  0  0  0  0  0  0  0
   -2.1399   -3.8192    0.0000 C   0  0  0  0  0  0  0  0  0  0  0  0
   -1.4226   -3.4116    0.0000 N   0  0  0  0  0  0  0  0  0  0  0  0
   -2.8515   -3.4018    0.0000 N   0  0  0  0  0  0  0  0  0  0  0  0
   -2.1286   -2.1692    0.0000 C   0  0  0  0  0  0  0  0  0  0  0  0
   -2.8459   -2.5768    0.0000 C   0  0  0  0  0  0  0  0  0  0  0  0
   -2.1229   -1.3443    0.0000 O   0  0  0  0  0  0  0  0  0  0  0  0
   -2.8346   -0.9269    0.0000 C   0  0  0  0  0  0  0  0  0  0  0  0
   -3.5575   -2.1594    0.0000 O   0  0  0  0  0  0  0  0  0  0  0  0
   -4.2748   -2.5670    0.0000 C   0  0  0  0  0  0  0  0  0  0  0  0
  1  2  2  0  0  0  0
  1  7  1  0  0  0  0
  2  5  1  0  0  0  0
  5  3  2  0  0  0  0
  3  4  1  0  0  0  0
  4  7  2  0  0  0  0
  5  6  1  0  0  0  0
  7  9  1  0  0  0  0
  9 11  1  0  0  0  0
  9  8  2  0  0  0  0
  9 10  2  0  0  0  0
 11 12  1  0  0  0  0
 14 12  2  0  0  0  0
 12 16  1  0  0  0  0
 13 14  1  0  0  0  0
 13 15  2  0  0  0  0
 16 17  2  0  0  0  0
 17 15  1  0  0  0  0
 16 18  1  0  0  0  0
 17 20  1  0  0  0  0
 18 19  1  0  0  0  0
 20 21  1  0  0  0  0
M  END
> <ID>
CHEBI:9329

> <NAME>
sulfadoxine

> <DEFINITION>
A sulfonamide consisting of pyrimidine having methoxy substituents at the 5- and 6-positions and a 4-aminobenzenesulfonamido group at the 4-position. In combination with the antiprotozoal pyrimethamine (CHEBI:8673) it is used as an antimalarial.

> <STAR>
3

> <SYNONYM>
Sulphormethoxine; Sulphadoxine; Sulforthomidine; Sulfadoxine; 4-Sulfanilamido-5,6-dimethoxypyrimidine

> <IUPAC_NAME>
4-amino-N-(5,6-dimethoxypyrimidin-4-yl)benzenesulfonamide

> <INN>
sulfadoxinum; sulfadoxine; sulfadoxina

> <FORMULA>
C12H14N4O4S

> <MASS>
310.33012

> <MONOISOTOPIC_MASS>
310.07358

> <CHARGE>
0

> <SMILES>
COc1ncnc(NS(=O)(=O)c2ccc(N)cc2)c1OC

> <INCHI>
InChI=1S/C12H14N4O4S/c1-19-10-11(14-7-15-12(10)20-2)16-21(17,18)9-5-3-8(13)4-6-9/h3-7H,13H2,1-2H3,(H,14,15,16)

> <INCHIKEY>
PJSFRIWCGOHTNF-UHFFFAOYSA-N

> <BEILSTEIN_REGISTRY_NUMBER>
625453

> <CAS_REGISTRY_NUMBER>
2447-57-6

> <REAXYS_REGISTRY_NUMBER>
625453

> <CHEMIDPLUS>
2447-57-6

> <DRUGBANK_ACCESSION>
DB01299

> <KEGG_COMPOUND_ACCESSION>
C07630

> <KEGG_DRUG_ACCESSION>
D00580

> <LINCS_ACCESSION>
LSM-5657

> <WIKIPEDIA_ACCESSION>
Sulfadoxine

> <PUBMED_CITATION>
11431418; 14711594; 23183348

$$$$

Ketcher 07071709472D 1   1.00000     0.00000     0

 15 15  0     1  0            999 V2000
   11.8385   -4.4933    0.0000 C   0  0  0  0  0  0  0  0  0  0  0  0
   12.1549   -5.4384    0.0000 C   0  0  0  0  0  0  0  0  0  0  0  0
   12.6504   -3.8936    0.0000 N   0  0  0  0  0  0  0  0  0  0  0  0
   10.9724   -3.9894    0.0000 C   0  0  0  0  0  0  0  0  0  0  0  0
   13.1541   -5.4342    0.0000 C   0  0  0  0  0  0  0  0  0  0  0  0
   11.5763   -6.2504    0.0000 O   0  0  0  0  0  0  0  0  0  0  0  0
   13.4623   -4.4850    0.0000 C   0  0  0  0  0  0  0  0  0  0  0  0
   10.1064   -4.4933    0.0000 C   0  0  0  0  0  0  0  0  0  0  0  0
   10.9642   -2.9901    0.0000 C   0  0  0  0  0  0  0  0  0  0  0  0
   14.3242   -3.9770    0.0000 O   0  0  0  0  0  0  0  0  0  0  0  0
    9.2405   -3.9936    0.0000 C   0  0  0  0  0  0  0  0  0  0  0  0
   10.9724   -4.9804    0.0000 H   0  0  0  0  0  0  0  0  0  0  0  0
   13.7433   -6.2414    0.0000 C   0  0  0  0  0  0  0  0  0  0  0  0
   14.7370   -6.1348    0.0000 O   0  0  0  0  0  0  0  0  0  0  0  0
   13.3389   -7.1553    0.0000 C   0  0  0  0  0  0  0  0  0  0  0  0
  1  2  1  0     0  0
  1  3  1  0     0  0
  1  4  1  0     0  0
  2  5  1  0     0  0
  2  6  2  0     0  0
  3  7  1  0     0  0
  4  8  1  0     0  0
  4  9  1  6     0  0
  7 10  2  0     0  0
  8 11  1  0     0  0
  5  7  1  0     0  0
  1 12  1  1     0  0
 14 13  2  0     0  0
 15 13  1  0     0  0
  5 13  1  0     0  0
M  END
> <ID>
CHEBI:9440

> <NAME>
tenuazonic acid

> <DEFINITION>
A member of the class of pyrrolidin-2-ones that is 5-(butan-2-yl)pyrrolidine-2,4-dione carrying an additional acetyl group at position 3. A mycotoxin produced by various plant pathogenic fungi.

> <STAR>
3

> <SYNONYM>
Tenuazonic acid; Pyrrole-2,4-diol, 3-acetyl-5-sec-butyl-

> <IUPAC_NAME>
(5S)-3-acetyl-5-[(2S)-butan-2-yl]pyrrolidine-2,4-dione

> <FORMULA>
C10H15NO3

> <MASS>
197.231

> <MONOISOTOPIC_MASS>
197.10519

> <CHARGE>
0

> <SMILES>
[C@]1(C(C(C(N1)=O)C(=O)C)=O)([C@H](CC)C)[H]

> <INCHI>
InChI=1S/C10H15NO3/c1-4-5(2)8-9(13)7(6(3)12)10(14)11-8/h5,7-8H,4H2,1-3H3,(H,11,14)/t5-,7?,8-/m0/s1

> <INCHIKEY>
KLBSRSYHIIAQTG-PZICIZFRSA-N

> <CAS_REGISTRY_NUMBER>
27778-66-1

> <REAXYS_REGISTRY_NUMBER>
8485

> <KEGG_COMPOUND_ACCESSION>
C08511

> <KNAPSACK_ACCESSION>
C00001554

> <METACYC_ACCESSION>
CPD-19688

> <WIKIPEDIA_ACCESSION>
Tenuazonic_acid

> <AGRICOLA_CITATION>
IND44316516; IND500630941

> <PUBMED_CITATION>
19486420; 19941132; 20026008; 21370870; 22054343; 22906495; 23230907; 23397093; 23474405; 23578482; 23605978; 25240106; 25292361; 25520156; 25845360; 26371380; 26503170; 26529482; 26633086; 27400452; 27452834; 27517345; 27599910; 27860113; 27865702; 27924529; 27957687; 28126937; 28324684; 28407940; 28489938; 28613901; 28672847

$$$$

Ketcher 11141910312D 1   1.00000     0.00000     0

 19 20  0     0  0            999 V2000
    9.1875  -25.1523    0.0000 N   0  0  0  0  0  0  0  0  0  0  0  0
    9.1875  -24.1523    0.0000 C   0  0  0  0  0  0  0  0  0  0  0  0
   10.0535  -23.6523    0.0000 C   0  0  0  0  0  0  0  0  0  0  0  0
   10.0535  -22.6523    0.0000 C   0  0  0  0  0  0  0  0  0  0  0  0
    9.1875  -22.1523    0.0000 C   0  0  0  0  0  0  0  0  0  0  0  0
    8.3215  -22.6523    0.0000 C   0  0  0  0  0  0  0  0  0  0  0  0
    8.3215  -23.6523    0.0000 C   0  0  0  0  0  0  0  0  0  0  0  0
    9.1875  -21.1523    0.0000 S   0  0  0  0  0  0  0  0  0  0  0  0
   10.1875  -21.1523    0.0000 O   0  0  0  0  0  0  0  0  0  0  0  0
    8.1875  -21.1523    0.0000 O   0  0  0  0  0  0  0  0  0  0  0  0
    9.1875  -20.1523    0.0000 N   0  0  0  0  0  0  0  0  0  0  0  0
    8.3215  -18.6524    0.0000 C   0  0  0  0  0  0  0  0  0  0  0  0
    7.4555  -18.1524    0.0000 C   0  0  0  0  0  0  0  0  0  0  0  0
    7.4554  -17.1523    0.0000 C   0  0  0  0  0  0  0  0  0  0  0  0
    8.3214  -16.6523    0.0000 C   0  0  0  0  0  0  0  0  0  0  0  0
    9.1875  -17.1524    0.0000 C   0  0  0  0  0  0  0  0  0  0  0  0
    9.1875  -18.1524    0.0000 C   0  0  0  0  0  0  0  0  0  0  0  0
    8.3215  -19.6523    0.0000 C   0  0  0  0  0  0  0  0  0  0  0  0
    7.4554  -20.1523    0.0000 O   0  0  0  0  0  0  0  0  0  0  0  0
  1  2  1  0     0  0
  2  3  2  0     0  0
  2  7  1  0     0  0
  3  4  1  0     0  0
  4  5  2  0     0  0
  5  6  1  0     0  0
  5  8  1  0     0  0
  6  7  2  0     0  0
  8 10  2  0     0  0
  8  9  2  0     0  0
  8 11  1  0     0  0
 12 13  1  0     0  0
 12 17  2  0     0  0
 12 18  1  0     0  0
 13 14  2  0     0  0
 14 15  1  0     0  0
 15 16  2  0     0  0
 16 17  1  0     0  0
 18 19  2  0     0  0
 11 18  1  0     0  0
M  END
> <ID>
CHEBI:94677

> <NAME>
sulfabenzamide

> <DEFINITION>
A sulfonamide containing a benzamido substituent on nitrogen. An antibacterial/antimicrobial, it is often used in conjunction with sulfathiazole and sulfacetamide as a topical, intravaginal antibacterial preparation.

> <STAR>
3

> <SYNONYM>
sulfabenzoylamide; sulfabenzide; sulfabenzid; sulfabenzamid; N(1)-benzoylsulfanilamide; N-(4-aminophenyl)sulfonylbenzamide

> <IUPAC_NAME>
N-(4-aminobenzene-1-sulfonyl)benzamide

> <INN>
sulfabenzamidum; sulfabenzamide; sulfabenzamide; sulfabenzamida

> <FORMULA>
C13H12N2O3S

> <MASS>
276.310

> <MONOISOTOPIC_MASS>
276.05686

> <CHARGE>
0

> <SMILES>
NC1=CC=C(C=C1)S(=O)(=O)NC(C=2C=CC=CC2)=O

> <INCHI>
InChI=1S/C13H12N2O3S/c14-11-6-8-12(9-7-11)19(17,18)15-13(16)10-4-2-1-3-5-10/h1-9H,14H2,(H,15,16)

> <INCHIKEY>
PBCZLFBEBARBBI-UHFFFAOYSA-N

> <CAS_REGISTRY_NUMBER>
127-71-9

> <CHEMIDPLUS>
127-71-9

> <LINCS_ACCESSION>
LSM-5698

> <WIKIPEDIA_ACCESSION>
Sulfabenzamide

> <PUBMED_CITATION>
19028005; 25086620; 30580515

$$$$
null
  CDK     0224162202
null
 21 23  0  0  0  0  0  0  0  0999 V2000
   -0.7145   -0.4125    0.0000 C   0  0  0  0  0  0  0  0  0  0  0  0
   -0.7145   -1.2375    0.0000 C   0  0  0  0  0  0  0  0  0  0  0  0
    0.0000   -1.6500    0.0000 C   0  0  0  0  0  0  0  0  0  0  0  0
    0.7145   -1.2375    0.0000 C   0  0  0  0  0  0  0  0  0  0  0  0
    0.7145   -0.4125    0.0000 C   0  0  0  0  0  0  0  0  0  0  0  0
    0.0000    0.0000    0.0000 C   0  0  0  0  0  0  0  0  0  0  0  0
    1.4289    0.0000    0.0000 N   0  0  0  0  0  0  0  0  0  0  0  0
    2.1434   -0.4125    0.0000 C   0  0  0  0  0  0  0  0  0  0  0  0
    2.1434   -1.2375    0.0000 C   0  0  0  0  0  0  0  0  0  0  0  0
    1.4289   -1.6500    0.0000 N   0  0  0  0  0  0  0  0  0  0  0  0
    2.8579   -1.6500    0.0000 N   0  0  0  0  0  0  0  0  0  0  0  0
    2.8579   -2.4750    0.0000 S   0  0  0  0  0  0  0  0  0  0  0  0
    2.0329   -2.4750    0.0000 O   0  0  0  0  0  0  0  0  0  0  0  0
    3.6829   -2.4750    0.0000 O   0  0  0  0  0  0  0  0  0  0  0  0
    2.8579   -3.3000    0.0000 C   0  0  0  0  0  0  0  0  0  0  0  0
    3.5724   -3.7125    0.0000 C   0  0  0  0  0  0  0  0  0  0  0  0
    3.5724   -4.5375    0.0000 C   0  0  0  0  0  0  0  0  0  0  0  0
    2.8579   -4.9500    0.0000 C   0  0  0  0  0  0  0  0  0  0  0  0
    2.1434   -4.5375    0.0000 C   0  0  0  0  0  0  0  0  0  0  0  0
    2.1434   -3.7125    0.0000 C   0  0  0  0  0  0  0  0  0  0  0  0
    2.8579   -5.7750    0.0000 N   0  0  0  0  0  0  0  0  0  0  0  0
  1  2  2  0  0  0  0 
  2  3  1  0  0  0  0 
  3  4  2  0  0  0  0 
  4  5  1  0  0  0  0 
  5  6  2  0  0  0  0 
  6  1  1  0  0  0  0 
  5  7  1  0  0  0  0 
  7  8  2  0  0  0  0 
  8  9  1  0  0  0  0 
  9 10  2  0  0  0  0 
 10  4  1  0  0  0  0 
  9 11  1  0  0  0  0 
 11 12  1  0  0  0  0 
 12 13  2  0  0  0  0 
 12 14  2  0  0  0  0 
 12 15  1  0  0  0  0 
 15 16  2  0  0  0  0 
 16 17  1  0  0  0  0 
 17 18  2  0  0  0  0 
 18 19  1  0  0  0  0 
 19 20  2  0  0  0  0 
 20 15  1  0  0  0  0 
 18 21  1  0  0  0  0 
M  END
> <ID>
CHEBI:94719

> <NAME>
4-amino-N-(2-quinoxalinyl)benzenesulfonamide

> <STAR>
2

> <FORMULA>
C14H12N4O2S

> <MASS>
300.337

> <MONOISOTOPIC_MASS>
300.06810

> <CHARGE>
0

> <SMILES>
C1=CC=C2C(=C1)N=CC(=N2)NS(=O)(=O)C3=CC=C(C=C3)N

> <INCHI>
InChI=1S/C14H12N4O2S/c15-10-5-7-11(8-6-10)21(19,20)18-14-9-16-12-3-1-2-4-13(12)17-14/h1-9H,15H2,(H,17,18)

> <INCHIKEY>
NHZLNPMOSADWGC-UHFFFAOYSA-N

> <HMDB_ACCESSION>
HMDB0033139

> <LINCS_ACCESSION>
LSM-5791

$$$$
null
  CDK     0224162202
null
 26 29  0  0  0  0  0  0  0  0999 V2000
   -3.5724    1.2375    0.0000 C   0  0  0  0  0  0  0  0  0  0  0  0
   -2.8579    0.8250    0.0000 N   0  0  0  0  0  0  0  0  0  0  0  0
   -2.1434    1.2375    0.0000 C   0  0  0  0  0  0  0  0  0  0  0  0
   -1.4289    0.8250    0.0000 C   0  0  0  0  0  0  0  0  0  0  0  0
   -1.4289    0.0000    0.0000 N   0  0  0  0  0  0  0  0  0  0  0  0
   -2.1434   -0.4125    0.0000 C   0  0  0  0  0  0  0  0  0  0  0  0
   -2.8579    0.0000    0.0000 C   0  0  0  0  0  0  0  0  0  0  0  0
   -0.7145   -0.4125    0.0000 C   0  0  0  0  0  0  0  0  0  0  0  0
   -0.7145   -1.2375    0.0000 C   0  0  0  0  0  0  0  0  0  0  0  0
    0.0000   -1.6500    0.0000 C   0  0  0  0  0  0  0  0  0  0  0  0
    0.7145   -1.2375    0.0000 C   0  0  0  0  0  0  0  0  0  0  0  0
    0.7145   -0.4125    0.0000 C   0  0  0  0  0  0  0  0  0  0  0  0
    0.0000    0.0000    0.0000 C   0  0  0  0  0  0  0  0  0  0  0  0
    0.0000    0.8250    0.0000 O   0  0  0  0  0  0  0  0  0  0  0  0
    0.7145    1.2375    0.0000 C   0  0  0  0  0  0  0  0  0  0  0  0
    1.4289    0.8250    0.0000 N   0  0  0  0  0  0  0  0  0  0  0  0
    1.4289    0.0000    0.0000 N   0  0  0  0  0  0  0  0  0  0  0  0
    2.1434   -0.4125    0.0000 C   0  0  0  0  0  0  0  0  0  0  0  0
    2.1434   -1.2375    0.0000 C   0  0  0  0  0  0  0  0  0  0  0  0
    1.4289   -1.6500    0.0000 C   0  0  0  0  0  0  0  0  0  0  0  0
    1.4289   -2.4750    0.0000 O   0  0  0  0  0  0  0  0  0  0  0  0
    2.8579   -1.6500    0.0000 C   0  0  0  0  0  0  0  0  0  0  0  0
    3.5724   -1.2375    0.0000 O   0  0  0  0  0  0  0  0  0  0  0  0
    2.8579   -2.4750    0.0000 O   0  0  0  0  0  0  0  0  0  0  0  0
    2.1434    1.2375    0.0000 C   0  0  0  0  0  0  0  0  0  0  0  0
   -1.4289   -1.6500    0.0000 F   0  0  0  0  0  0  0  0  0  0  0  0
  1  2  1  0  0  0  0 
  2  3  1  0  0  0  0 
  3  4  1  0  0  0  0 
  4  5  1  0  0  0  0 
  5  6  1  0  0  0  0 
  6  7  1  0  0  0  0 
  7  2  1  0  0  0  0 
  5  8  1  0  0  0  0 
  8  9  2  0  0  0  0 
  9 10  1  0  0  0  0 
 10 11  2  0  0  0  0 
 11 12  1  0  0  0  0 
 12 13  2  0  0  0  0 
 13  8  1  0  0  0  0 
 13 14  1  0  0  0  0 
 14 15  1  0  0  0  0 
 15 16  1  0  0  0  0 
 16 17  1  0  0  0  0 
 17 12  1  0  0  0  0 
 17 18  1  0  0  0  0 
 18 19  2  0  0  0  0 
 19 20  1  0  0  0  0 
 20 11  1  0  0  0  0 
 20 21  2  0  0  0  0 
 19 22  1  0  0  0  0 
 22 23  2  0  0  0  0 
 22 24  1  0  0  0  0 
 16 25  1  0  0  0  0 
  9 26  1  0  0  0  0 
M  END
> <ID>
CHEBI:94723

> <NAME>
LSM-5799

> <STAR>
2

> <FORMULA>
C17H19FN4O4

> <MASS>
362.356

> <MONOISOTOPIC_MASS>
362.13903

> <CHARGE>
0

> <SMILES>
CN1CCN(CC1)C2=C(C=C3C4=C2OCN(N4C=C(C3=O)C(=O)O)C)F

> <INCHI>
InChI=1S/C17H19FN4O4/c1-19-3-5-21(6-4-19)14-12(18)7-10-13-16(14)26-9-20(2)22(13)8-11(15(10)23)17(24)25/h7-8H,3-6,9H2,1-2H3,(H,24,25)

> <INCHIKEY>
BPFYOAJNDMUVBL-UHFFFAOYSA-N

> <LINCS_ACCESSION>
LSM-5799

$$$$
