
Marvin  11300912152D          

 18 19  0  0  0  0            999 V2000
   14.5316   -6.1626    0.0000 C   0  0  0  0  0  0  0  0  0  0  0  0
   14.5316   -6.9876    0.0000 C   0  0  0  0  0  0  0  0  0  0  0  0
   13.8155   -7.4001    0.0000 C   0  0  0  0  0  0  0  0  0  0  0  0
   13.1035   -6.9876    0.0000 C   0  0  0  0  0  0  0  0  0  0  0  0
   13.1035   -6.1626    0.0000 C   0  0  0  0  0  0  0  0  0  0  0  0
   13.8155   -5.7501    0.0000 C   0  0  0  0  0  0  0  0  0  0  0  0
   12.3887   -5.7508    0.0000 S   0  0  0  0  0  0  0  0  0  0  0  0
   11.6746   -6.1637    0.0000 N   0  0  0  0  0  0  0  0  0  0  0  0
   10.9597   -5.7518    0.0000 C   0  0  0  0  0  0  0  0  0  0  0  0
   10.2477   -6.1650    0.0000 N   0  0  0  0  0  0  0  0  0  0  0  0
    9.5330   -5.7531    0.0000 C   0  0  0  0  0  0  0  0  0  0  0  0
    9.5323   -4.9280    0.0000 C   0  0  0  0  0  0  0  0  0  0  0  0
   10.2465   -4.5149    0.0000 C   0  0  0  0  0  0  0  0  0  0  0  0
   10.9613   -4.9269    0.0000 N   0  0  0  0  0  0  0  0  0  0  0  0
   15.2460   -7.4006    0.0000 N   0  0  0  0  0  0  0  0  0  0  0  0
   12.8012   -5.0363    0.0000 O   0  0  0  0  0  0  0  0  0  0  0  0
   11.9762   -5.0363    0.0000 O   0  0  0  0  0  0  0  0  0  0  0  0
    8.8189   -6.1662    0.0000 C   0  0  0  0  0  0  0  0  0  0  0  0
  3  4  1  0  0  0  0
  4  5  2  0  0  0  0
  8  9  1  0  0  0  0
  5  6  1  0  0  0  0
  6  1  2  0  0  0  0
  5  7  1  0  0  0  0
  1  2  1  0  0  0  0
  9 10  2  0  0  0  0
 10 11  1  0  0  0  0
 11 12  2  0  0  0  0
 12 13  1  0  0  0  0
 13 14  2  0  0  0  0
 14  9  1  0  0  0  0
  7  8  1  0  0  0  0
  2  3  2  0  0  0  0
  2 15  1  0  0  0  0
 17  7  2  0  0  0  0
  7 16  2  0  0  0  0
 11 18  1  0  0  0  0
M  END
> <ID>
CHEBI:102130

> <NAME>
sulfamerazine

> <DEFINITION>
A sulfonamide consisting of pyrimidine with a methyl substituent at the 4-position and a 4-aminobenzenesulfonamido group at the 2-position.

> <STAR>
3

> <SYNONYM>
Sulphamerazine; Sulfamethyldiazine; N(1)-(4-Methyl-2-pyrimidinyl)sulfanilamide; N-(4-Methyl-2-pyrimidyl)sulfanilamide; 4-Amino-N-(4-methyl-2-pyrimidinyl)-benzenesulfonamide; 2-Sulfa-4-methylpyrimidine; 2-(Sulfanilamido)-4-methylpyrimidine; 2-(p-Aminobenzolsulfonamido)-4-methylpyrimidine; 2-(4-Aminobenzenesulfonamido)-4-methylpyrimidine; (p-Aminobenzolsulfonyl)-2-amino-4-methylpyrimidin

> <IUPAC_NAME>
4-amino-N-(4-methylpyrimidin-2-yl)benzenesulfonamide

> <INN>
sulfamerazinum; sulfamerazine; sulfamerazina

> <FORMULA>
C11H12N4O2S

> <MASS>
264.30400

> <MONOISOTOPIC_MASS>
264.06810

> <CHARGE>
0

> <SMILES>
Cc1ccnc(NS(=O)(=O)c2ccc(N)cc2)n1

> <INCHI>
InChI=1S/C11H12N4O2S/c1-8-6-7-13-11(14-8)15-18(16,17)10-4-2-9(12)3-5-10/h2-7H,12H2,1H3,(H,13,14,15)

> <INCHIKEY>
QPPBRPIAZZHUNT-UHFFFAOYSA-N

> <BEILSTEIN_REGISTRY_NUMBER>
249133

> <CAS_REGISTRY_NUMBER>
127-79-7

> <GMELIN_REGISTRY_NUMBER>
219949

> <CHEMIDPLUS>
127-79-7

> <DRUGBANK_ACCESSION>
DB01581

> <KEGG_DRUG_ACCESSION>
D02435

> <LINCS_ACCESSION>
LSM-5979

> <NIST_CHEMISTRY_WEBBOOK>
127-79-7

> <WIKIPEDIA_ACCESSION>
Sulfamerazine

> <PUBMED_CITATION>
11431418; 13037579; 23627444; 2434548; 24508883; 6864729

$$$$

Marvin  02241114122D          

 16 16  0  0  0  0            999 V2000
    6.7196  -21.2490    0.0000 N   0  0  0  0  0  0  0  0  0  0  0  0
    6.0051  -21.6615    0.0000 C   0  0  0  0  0  0  0  0  0  0  0  0
    6.0051  -22.4864    0.0000 C   0  0  0  0  0  0  0  0  0  0  0  0
    6.7196  -22.8990    0.0000 C   0  0  0  0  0  0  0  0  0  0  0  0
    7.4342  -22.4864    0.0000 N   0  0  0  0  0  0  0  0  0  0  0  0
    7.4342  -21.6615    0.0000 C   0  0  0  0  0  0  0  0  0  0  0  0
    8.1485  -21.2490    0.0000 S   0  0  0  0  0  0  0  0  0  0  0  0
    6.7196  -23.7240    0.0000 O   0  0  0  0  0  0  0  0  0  0  0  0
    5.2907  -21.2490    0.0000 O   0  0  0  0  0  0  0  0  0  0  0  0
    5.5102  -23.1478    0.0000 C   0  0  0  0  0  0  0  0  0  0  0  0
    5.2873  -22.0787    0.0000 C   0  0  0  0  0  0  0  0  0  0  0  0
    4.5754  -22.4956    0.0000 C   0  0  0  0  0  0  0  0  0  0  0  0
    4.6910  -23.0509    0.0000 C   0  0  0  0  0  0  0  0  0  0  0  0
    5.8356  -23.9059    0.0000 C   0  0  0  0  0  0  0  0  0  0  0  0
    4.1879  -23.7092    0.0000 C   0  0  0  0  0  0  0  0  0  0  0  0
    3.3697  -23.6031    0.0000 C   0  0  0  0  0  0  0  0  0  0  0  0
  1  2  1  0  0  0  0
  1  6  1  0  0  0  0
  2  3  1  0  0  0  0
  3  4  1  0  0  0  0
  4  5  1  0  0  0  0
  5  6  1  0  0  0  0
  6  7  2  0  0  0  0
  4  8  2  0  0  0  0
  2  9  2  0  0  0  0
 10  3  1  0  0  0  0
  3 11  1  0  0  0  0
 11 12  1  0  0  0  0
 10 13  1  0  0  0  0
 10 14  1  0  0  0  0
 13 15  1  0  0  0  0
 15 16  1  0  0  0  0
M  END
> <ID>
CHEBI:102166

> <NAME>
thiopental

> <DEFINITION>
A barbiturate, the structure of which is that of 2-thiobarbituric acid substituted at C-5 by ethyl and sec-pentyl groups.

> <STAR>
3

> <SECONDARY_ID>
CHEBI:9560

> <SYNONYM>
Thiopentone; Thiopentobarbituric acid; Thiopentobarbitone; Thiopentobarbital; Thiopental; Pentothiobarbital; Penthiobarbital; 5-Ethyl-5-(1-methyl-butyl)-2-thioxo-dihydro-pyrimidine-4,6-dione; 2-Thio-5-ethyl-5-sec-pentylbarbituric acid; (+-)-thiopental

> <IUPAC_NAME>
5-ethyl-5-(pentan-2-yl)-2-thioxodihydropyrimidine-4,6(1H,5H)-dione

> <FORMULA>
C11H18N2O2S

> <MASS>
242.33800

> <MONOISOTOPIC_MASS>
242.10890

> <CHARGE>
0

> <SMILES>
CCCC(C)C1(CC)C(=O)NC(=S)NC1=O

> <INCHI>
InChI=1S/C11H18N2O2S/c1-4-6-7(3)11(5-2)8(14)12-10(16)13-9(11)15/h7H,4-6H2,1-3H3,(H2,12,13,14,15,16)

> <INCHIKEY>
IUJDSEJGGMCXSG-UHFFFAOYSA-N

> <BEILSTEIN_REGISTRY_NUMBER>
209361

> <CAS_REGISTRY_NUMBER>
76-75-5

> <REAXYS_REGISTRY_NUMBER>
209361

> <CHEMIDPLUS>
76-75-5

> <DRUGBANK_ACCESSION>
DB00599

> <KEGG_COMPOUND_ACCESSION>
C07521

> <PUBMED_CITATION>
10666006; 10841799; 15857133; 16166909; 16897573; 18484074; 20488867; 2215478; 23305916; 23422796; 23490495; 23542731; 23644730; 23879844; 3654008; 6864729; 9171876; 9699097

$$$$

Marvin  11090909502D          

 19 19  0  0  0  0            999 V2000
   13.3762   -7.2080    0.0000 N   0  0  0  0  0  0  0  0  0  0  0  0
   12.6611   -7.6220    0.0000 C   0  0  0  0  0  0  0  0  0  0  0  0
   14.0913   -7.6220    0.0000 C   0  0  0  0  0  0  0  0  0  0  0  0
   12.6611   -8.4500    0.0000 C   0  0  0  0  0  0  0  0  0  0  0  0
   14.0913   -8.4500    0.0000 N   0  0  0  0  0  0  0  0  0  0  0  0
   13.3762   -8.8765    0.0000 C   0  0  0  0  0  0  0  0  0  0  0  0
   11.9293   -7.2038    0.0000 O   0  0  0  0  0  0  0  0  0  0  0  0
   14.8189   -7.2080    0.0000 O   0  0  0  0  0  0  0  0  0  0  0  0
   13.3762   -9.7002    0.0000 O   0  0  0  0  0  0  0  0  0  0  0  0
   11.9586   -8.0234    0.0000 C   0  0  0  0  0  0  0  0  0  0  0  0
   13.3762   -6.4177    0.0000 C   0  0  0  0  0  0  0  0  0  0  0  0
   11.2268   -8.3872    0.0000 C   0  0  0  0  0  0  0  0  0  0  0  0
   10.5285   -8.0234    0.0000 C   0  0  0  0  0  0  0  0  0  0  0  0
   12.2486   -9.1644    0.0000 C   0  0  0  0  0  0  0  0  0  0  0  0
   11.4236   -9.1644    0.0000 C   0  0  0  0  0  0  0  0  0  0  0  0
   12.6611   -9.8789    0.0000 C   0  0  0  0  0  0  0  0  0  0  0  0
   10.5986   -9.1644    0.0000 C   0  0  0  0  0  0  0  0  0  0  0  0
    9.7736   -9.1644    0.0000 C   0  0  0  0  0  0  0  0  0  0  0  0
    9.1903   -9.7478    0.0000 C   0  0  0  0  0  0  0  0  0  0  0  0
  2  1  1  0  0  0  0
  3  1  1  0  0  0  0
  4  2  1  0  0  0  0
  5  3  1  0  0  0  0
  6  5  1  0  0  0  0
  7  2  2  0  0  0  0
  8  3  2  0  0  0  0
  9  6  2  0  0  0  0
 10  4  1  0  0  0  0
 11  1  1  0  0  0  0
 12 10  1  0  0  0  0
 13 12  2  0  0  0  0
  6  4  1  0  0  0  0
  4 14  1  0  0  0  0
 14 15  1  0  0  0  0
 14 16  1  0  0  0  0
 15 17  3  0  0  0  0
 17 18  1  0  0  0  0
 18 19  1  0  0  0  0
M  END
> <ID>
CHEBI:102216

> <NAME>
methohexital

> <DEFINITION>
A barbiturate, the structure of which is that of barbituric acid substituted at N-1 by a methyl group and at C-5 by allyl and 1-methylpent-2-ynyl groups.

> <STAR>
3

> <SECONDARY_ID>
CHEBI:6833

> <SYNONYM>
Methohexitone; Methohexital; alpha-DL-1-methyl-5-allyl-5-(1'-methylpentyn-2-yl)barbituric acid; 5-Allyl-5-(3-hexyn-2-yl)-1-methylbarbituric acid; 5-Allyl-1-methyl-5-(1-methyl-pent-2-ynyl)-pyrimidine-2,4,6-trione; 5-allyl-1-methyl-5-(1-methyl-2-pentynyl)-2,4,6(1H,3H,5H)-pyrimidinetrione; (+-)-5-allyl-1-methyl-5-(1-methyl-2-pentynyl)barbituric acid

> <IUPAC_NAME>
1-methyl-5-(1-methylpent-2-yn-1-yl)-5-(prop-2-en-1-yl)pyrimidine-2,4,6(1H,3H,5H)-trione

> <INN>
Metohexital; Methohexitalum; Methohexital

> <FORMULA>
C14H18N2O3

> <MASS>
262.30430

> <MONOISOTOPIC_MASS>
262.13174

> <CHARGE>
0

> <SMILES>
CCC#CC(C)C1(CC=C)C(=O)NC(=O)N(C)C1=O

> <INCHI>
InChI=1S/C14H18N2O3/c1-5-7-8-10(3)14(9-6-2)11(17)15-13(19)16(4)12(14)18/h6,10H,2,5,9H2,1,3-4H3,(H,15,17,19)

> <INCHIKEY>
NZXKDOXHBHYTKP-UHFFFAOYSA-N

> <BEILSTEIN_REGISTRY_NUMBER>
89964

> <CAS_REGISTRY_NUMBER>
151-83-7

> <REAXYS_REGISTRY_NUMBER>
89964

> <CHEMIDPLUS>
151-83-7

> <DRUGBANK_ACCESSION>
DB00474

> <KEGG_COMPOUND_ACCESSION>
C07844

> <KEGG_DRUG_ACCESSION>
D04985

> <NIST_CHEMISTRY_WEBBOOK>
151-83-7

> <WIKIPEDIA_ACCESSION>
Methohexital

> <PUBMED_CITATION>
13919899; 20045848; 22330701; 22914630; 22914634; 23164727; 23399487; 23422530; 23813116; 3654008; 6864729

$$$$

Marvin  11300911192D          

 19 20  0  0  0  0            999 V2000
   13.0381   -5.5043    0.0000 C   0  0  0  0  0  0  0  0  0  0  0  0
   13.0381   -6.3293    0.0000 C   0  0  0  0  0  0  0  0  0  0  0  0
   12.3220   -6.7418    0.0000 C   0  0  0  0  0  0  0  0  0  0  0  0
   11.6100   -6.3293    0.0000 C   0  0  0  0  0  0  0  0  0  0  0  0
   11.6100   -5.5043    0.0000 C   0  0  0  0  0  0  0  0  0  0  0  0
   12.3220   -5.0918    0.0000 C   0  0  0  0  0  0  0  0  0  0  0  0
   10.8952   -5.0925    0.0000 S   0  0  0  0  0  0  0  0  0  0  0  0
   10.1811   -5.5054    0.0000 N   0  0  0  0  0  0  0  0  0  0  0  0
    9.4662   -5.0935    0.0000 C   0  0  0  0  0  0  0  0  0  0  0  0
    8.7542   -5.5067    0.0000 N   0  0  0  0  0  0  0  0  0  0  0  0
    8.0395   -5.0948    0.0000 C   0  0  0  0  0  0  0  0  0  0  0  0
    8.0388   -4.2697    0.0000 C   0  0  0  0  0  0  0  0  0  0  0  0
    8.7530   -3.8566    0.0000 C   0  0  0  0  0  0  0  0  0  0  0  0
    9.4678   -4.2686    0.0000 N   0  0  0  0  0  0  0  0  0  0  0  0
   13.7525   -6.7423    0.0000 N   0  0  0  0  0  0  0  0  0  0  0  0
   11.3077   -4.3780    0.0000 O   0  0  0  0  0  0  0  0  0  0  0  0
   10.4827   -4.3780    0.0000 O   0  0  0  0  0  0  0  0  0  0  0  0
    8.7524   -3.0316    0.0000 C   0  0  0  0  0  0  0  0  0  0  0  0
    7.3254   -5.5079    0.0000 C   0  0  0  0  0  0  0  0  0  0  0  0
  3  4  1  0  0  0  0
  4  5  2  0  0  0  0
  8  9  1  0  0  0  0
  5  6  1  0  0  0  0
  6  1  2  0  0  0  0
  5  7  1  0  0  0  0
  1  2  1  0  0  0  0
  9 10  2  0  0  0  0
 10 11  1  0  0  0  0
 11 12  2  0  0  0  0
 12 13  1  0  0  0  0
 13 14  2  0  0  0  0
 14  9  1  0  0  0  0
  7  8  1  0  0  0  0
  2  3  2  0  0  0  0
  2 15  1  0  0  0  0
 17  7  2  0  0  0  0
  7 16  2  0  0  0  0
 13 18  1  0  0  0  0
 11 19  1  0  0  0  0
M  END
> <ID>
CHEBI:102265

> <NAME>
sulfamethazine

> <DEFINITION>
A sulfonamide consisting of pyrimidine with methyl substituents at the 4- and 6-positions and a 4-aminobenzenesulfonamido group at the 2-position.

> <STAR>
3

> <SYNONYM>
Sulphamethazine; Sulphadimethylpyrimidine; Sulfamezathine; sulfamethazone; Sulfametazyny; Sulfametazina; Sulfadimethylpyrimidine; Sulfadimethyldiazine; SMZ; N(1)-(4,6-Dimethyl-2-pyrimidyl)sulfanilamide; N(1)-(4,6-Dimethyl-2-pyrimidinyl)sulfanilamide; N-(4,6-Dimethyl-2-pyrimidyl)sulfanilamide; 6-(4'-Aminobenzol-sulfonamido)-2,4-dimethylpyrimidin; 4-amino-N-(4,6-dimethylpyrimidin-2-yl)benzenesulfonamide; 4-Amino-N-(4,6-dimethyl-pyrimidin-2-yl)-benzenesulfonamide; 4-Amino-N-(2,6-dimethyl-4-pyrimidinyl)benzenesulfonamide; 4,6-Dimethyl-2-sulfanilamidopyrimidine; 2-Sulfanilamido-4,6-dimethylpyrimidine; 2-(p-Aminobenzenesulfonamido)-4,6-dimethylpyrimidine; 2-(4-Aminobenzenesulfonamido)-4,6-dimethylpyrimidine; (p-Aminobenzolsulfonyl)-2-amino-4,6-dimethylpyrimidin

> <IUPAC_NAME>
4-amino-N-(4,6-dimethylpyrimidin-2-yl)benzenesulfonamide

> <INN>
sulfadimidinum; sulfadimidine; sulfadimidina

> <FORMULA>
C12H14N4O2S

> <MASS>
278.33000

> <MONOISOTOPIC_MASS>
278.08375

> <CHARGE>
0

> <SMILES>
Cc1cc(C)nc(NS(=O)(=O)c2ccc(N)cc2)n1

> <INCHI>
InChI=1S/C12H14N4O2S/c1-8-7-9(2)15-12(14-8)16-19(17,18)11-5-3-10(13)4-6-11/h3-7H,13H2,1-2H3,(H,14,15,16)

> <INCHIKEY>
ASWVTGNCAZCNNR-UHFFFAOYSA-N

> <BEILSTEIN_REGISTRY_NUMBER>
261304

> <CAS_REGISTRY_NUMBER>
57-68-1

> <GMELIN_REGISTRY_NUMBER>
1009759

> <REAXYS_REGISTRY_NUMBER>
261304

> <CHEMIDPLUS>
57-68-1

> <DRUGBANK_ACCESSION>
DB01582

> <HMDB_ACCESSION>
HMDB0015522

> <KEGG_COMPOUND_ACCESSION>
C19530

> <KEGG_DRUG_ACCESSION>
D02436

> <LINCS_ACCESSION>
LSM-5295

> <NIST_CHEMISTRY_WEBBOOK>
57-68-1

> <WIKIPEDIA_ACCESSION>
Sulfadimidine

> <PUBMED_CITATION>
11431418; 14552772; 15603963; 17311370; 17596632; 20028131; 22903812; 23218311; 23384282; 23434485; 23454458; 23562141; 23636590; 23673752; 23673946; 23704574; 6864729; 7021831; 7328159; 8199304; 9886437

$$$$

Marvin  10281014422D          

 18 19  0  0  0  0            999 V2000
   14.7419  -10.1823    0.0000 C   0  0  0  0  0  0  0  0  0  0  0  0
   15.4431   -9.7697    0.0000 S   0  0  0  0  0  0  0  0  0  0  0  0
   14.7419  -11.0485    0.0000 C   0  0  0  0  0  0  0  0  0  0  0  0
   13.9993   -9.7697    0.0000 C   0  0  0  0  0  0  0  0  0  0  0  0
   16.1856  -10.1823    0.0000 N   0  0  0  0  0  0  0  0  0  0  0  0
   14.8656   -9.1922    0.0000 O   0  0  0  0  0  0  0  0  0  0  0  0
   16.0207   -9.1922    0.0000 O   0  0  0  0  0  0  0  0  0  0  0  0
   14.0406  -11.4610    0.0000 C   0  0  0  0  0  0  0  0  0  0  0  0
   13.2981  -10.2235    0.0000 C   0  0  0  0  0  0  0  0  0  0  0  0
   16.8870   -9.7697    0.0000 C   0  0  0  0  0  0  0  0  0  0  0  0
   13.2981  -11.0485    0.0000 C   0  0  0  0  0  0  0  0  0  0  0  0
   12.5968  -11.4198    0.0000 N   0  0  0  0  0  0  0  0  0  0  0  0
   17.5606  -10.2460    0.0000 O   0  0  0  0  0  0  0  0  0  0  0  0
   18.2218   -9.7525    0.0000 N   0  0  0  0  0  0  0  0  0  0  0  0
   17.9567   -8.9712    0.0000 C   0  0  0  0  0  0  0  0  0  0  0  0
   17.1318   -8.9818    0.0000 C   0  0  0  0  0  0  0  0  0  0  0  0
   18.4270   -8.3062    0.0000 C   0  0  0  0  0  0  0  0  0  0  0  0
   16.6412   -8.3246    0.0000 C   0  0  0  0  0  0  0  0  0  0  0  0
  1  2  1  0  0  0  0
  1  3  1  0  0  0  0
  1  4  2  0  0  0  0
  2  5  1  0  0  0  0
  2  6  2  0  0  0  0
  2  7  2  0  0  0  0
  3  8  2  0  0  0  0
  4  9  1  0  0  0  0
  5 10  1  0  0  0  0
  8 11  1  0  0  0  0
 11 12  1  0  0  0  0
  9 11  2  0  0  0  0
 10 13  1  0  0  0  0
 13 14  1  0  0  0  0
 14 15  2  0  0  0  0
 15 16  1  0  0  0  0
 10 16  2  0  0  0  0
 15 17  1  0  0  0  0
 16 18  1  0  0  0  0
M  END
> <ID>
CHEBI:102484

> <NAME>
sulfisoxazole

> <DEFINITION>
A sulfonamide antibacterial with an oxazole substituent. It has antibiotic activity against a wide range of gram-negative and gram-positive organisms.

> <STAR>
3

> <SECONDARY_ID>
CHEBI:9343

> <SYNONYM>
Sulphofurazole; Sulphisoxazol; Sulphaisoxazole; Sulphafurazole; Sulphafurazol; Sulphadimethylisoxazole; Sulfofurazole; Sulfisoxazol; Sulfisoxasole; Sulfisonazole; Sulfasoxazole; Sulfaisoxazole; Sulfafurazol; Sulfadimethylisoxazole; N(1)-(3,4-dimethyl-5-isoxazolyl)sulphanilamide; N(1)-(3,4-dimethyl-5-isoxazolyl)sulfanilamide; N'-(3,4)Dimethylisoxazol-5-yl-sulphanilamide; 5-Sulphanilamido-3,4-dimethyl-isoxazole; 5-Sulfanilamido-3,4-dimethylisoxazole; 5-(p-Aminobenzenesulphonamido)-3,4-dimethylisoxazole; 5-(p-Aminobenzenesulfonamido)-3,4-dimethylisoxazole; 5-(4-Aminophenylsulfonamido)-3,4-dimethylisoxazole; 4-Amino-N-(3,4-dimethyl-5-isoxazolyl)benzenesulphonamide; 4-Amino-N-(3,4-dimethyl-5-isoxazolyl)benzenesulfonamide; 3,4-Dimethylisoxazole-5-sulphanilamide; 3,4-Dimethylisoxazole-5-sulfanilamide; 3,4-Dimethyl-5-sulphonamidoisoxazole; 3,4-Dimethyl-5-sulphanilamidoisoxazole; 3,4-Dimethyl-5-sulfonamidoisoxazole; 3,4-Dimethyl-5-sulfanilamidoisoxazole

> <IUPAC_NAME>
4-amino-N-(3,4-dimethylisoxazol-5-yl)benzenesulfonamide

> <INN>
sulfafurazolum; sulfafurazole

> <FORMULA>
C11H13N3O3S

> <MASS>
267.30400

> <MONOISOTOPIC_MASS>
267.06776

> <CHARGE>
0

> <SMILES>
Cc1noc(NS(=O)(=O)c2ccc(N)cc2)c1C

> <INCHI>
InChI=1S/C11H13N3O3S/c1-7-8(2)13-17-11(7)14-18(15,16)10-5-3-9(12)4-6-10/h3-6,14H,12H2,1-2H3

> <INCHIKEY>
NHUHCSRWZMLRLA-UHFFFAOYSA-N

> <BEILSTEIN_REGISTRY_NUMBER>
263871

> <CAS_REGISTRY_NUMBER>
127-69-5

> <GMELIN_REGISTRY_NUMBER>
864477

> <CHEMIDPLUS>
127-69-5

> <DRUGBANK_ACCESSION>
DB00263

> <KEGG_COMPOUND_ACCESSION>
C07318

> <KEGG_DRUG_ACCESSION>
D00450

> <LINCS_ACCESSION>
LSM-3120

> <NIST_CHEMISTRY_WEBBOOK>
127-69-5

> <WIKIPEDIA_ACCESSION>
Sulfisoxazole

> <PUBMED_CITATION>
1861917; 4960234; 7356572

$$$$
null
  CDK     0224162328
null
 29 31  0  0  0  0  0  0  0  0999 V2000
   -4.4023   -2.0855    0.0000 C   0  0  0  0  0  0  0  0  0  0  0  0
   -3.6054   -2.2990    0.0000 O   0  0  0  0  0  0  0  0  0  0  0  0
   -3.0220   -1.7157    0.0000 N   0  0  0  0  0  0  0  0  0  0  0  0
   -2.2251   -1.9292    0.0000 C   0  0  0  0  0  0  0  0  0  0  0  0
   -2.0116   -2.7261    0.0000 C   0  0  0  0  0  0  0  0  0  0  0  0
   -1.2414   -3.0217    0.0000 C   0  0  0  0  0  0  0  0  0  0  0  0
   -1.2846   -3.8456    0.0000 C   0  0  0  0  0  0  0  0  0  0  0  0
   -2.0815   -4.0591    0.0000 C   0  0  0  0  0  0  0  0  0  0  0  0
   -2.5308   -3.3672    0.0000 O   0  0  0  0  0  0  0  0  0  0  0  0
   -1.6418   -1.3458    0.0000 C   0  0  0  0  0  0  0  0  0  0  0  0
   -1.8553   -0.5489    0.0000 O   0  0  0  0  0  0  0  0  0  0  0  0
   -0.8449   -1.5593    0.0000 N   0  0  0  0  0  0  0  0  0  0  0  0
   -0.2615   -0.9760    0.0000 C   0  0  0  0  0  0  0  0  0  0  0  0
    0.5635   -0.9760    0.0000 C   0  0  0  0  0  0  0  0  0  0  0  0
    0.5635   -0.1510    0.0000 N   0  0  0  0  0  0  0  0  0  0  0  0
   -0.2615   -0.1510    0.0000 C   0  0  0  0  0  0  0  0  0  0  0  0
   -0.8449    0.4324    0.0000 O   0  0  0  0  0  0  0  0  0  0  0  0
    1.2780    0.2615    0.0000 C   0  0  0  0  0  0  0  0  0  0  0  0
    1.9924   -0.1510    0.0000 C   0  0  0  0  0  0  0  0  0  0  0  0
    1.9924   -0.9760    0.0000 C   0  0  0  0  0  0  0  0  0  0  0  0
    1.2780   -1.3885    0.0000 S   0  0  0  0  0  0  0  0  0  0  0  0
    2.7069    0.2615    0.0000 C   0  0  0  0  0  0  0  0  0  0  0  0
    2.7069    1.0865    0.0000 O   0  0  0  0  0  0  0  0  0  0  0  0
    3.4214    1.4990    0.0000 C   0  0  0  0  0  0  0  0  0  0  0  0
    3.4214    2.3240    0.0000 O   0  0  0  0  0  0  0  0  0  0  0  0
    4.1358    1.0865    0.0000 N   0  0  0  0  0  0  0  0  0  0  0  0
    1.2780    1.0865    0.0000 C   0  0  0  0  0  0  0  0  0  0  0  0
    1.9924    1.4990    0.0000 O   0  0  0  0  0  0  0  0  0  0  0  0
    0.5635    1.4990    0.0000 O   0  0  0  0  0  0  0  0  0  0  0  0
  1  2  1  0  0  0  0 
  3  2  1  4  0  0  0 
  3  4  2  0  0  0  0 
  4  5  1  0  0  0  0 
  5  6  2  0  0  0  0 
  6  7  1  0  0  0  0 
  7  8  2  0  0  0  0 
  8  9  1  0  0  0  0 
  9  5  1  0  0  0  0 
  4 10  1  0  0  0  0 
 10 11  2  0  0  0  0 
 10 12  1  0  0  0  0 
 12 13  1  0  0  0  0 
 13 14  1  0  0  0  0 
 14 15  1  0  0  0  0 
 15 16  1  0  0  0  0 
 16 13  1  0  0  0  0 
 16 17  2  0  0  0  0 
 15 18  1  0  0  0  0 
 18 19  2  0  0  0  0 
 19 20  1  0  0  0  0 
 20 21  1  0  0  0  0 
 21 14  1  0  0  0  0 
 19 22  1  0  0  0  0 
 22 23  1  0  0  0  0 
 23 24  1  0  0  0  0 
 24 25  2  0  0  0  0 
 24 26  1  0  0  0  0 
 18 27  1  0  0  0  0 
 27 28  2  0  0  0  0 
 27 29  1  0  0  0  0 
M  END
> <ID>
CHEBI:103836

> <NAME>
3-(carbamoyloxymethyl)-7-[[2-(2-furanyl)-2-methoxyimino-1-oxoethyl]amino]-8-oxo-5-thia-1-azabicyclo[4.2.0]oct-2-ene-2-carboxylic acid

> <STAR>
2

> <FORMULA>
C16H16N4O8S

> <MASS>
424.387

> <MONOISOTOPIC_MASS>
424.06888

> <CHARGE>
0

> <SMILES>
CON=C(C1=CC=CO1)C(=O)NC2C3N(C2=O)C(=C(CS3)COC(=O)N)C(=O)O

> <INCHI>
InChI=1S/C16H16N4O8S/c1-26-19-9(8-3-2-4-27-8)12(21)18-10-13(22)20-11(15(23)24)7(5-28-16(17)25)6-29-14(10)20/h2-4,10,14H,5-6H2,1H3,(H2,17,25)(H,18,21)(H,23,24)

> <INCHIKEY>
JFPVXVDWJQMJEE-UHFFFAOYSA-N

> <LINCS_ACCESSION>
LSM-15185

$$$$
null
  CDK     0224162331
null
 35 39  0  0  0  0  0  0  0  0999 V2000
    3.6090   -0.8090    0.0000 C   0  0  0  0  0  0  0  0  0  0  0  0
    4.2221   -0.2570    0.0000 N   0  0  0  0  0  0  0  0  0  0  0  0
    4.1358    0.5635    0.0000 C   0  0  0  0  0  0  0  0  0  0  0  0
    4.8895    0.8990    0.0000 N   0  0  0  0  0  0  0  0  0  0  0  0
    5.4415    0.2859    0.0000 N   0  0  0  0  0  0  0  0  0  0  0  0
    5.0290   -0.4285    0.0000 N   0  0  0  0  0  0  0  0  0  0  0  0
    3.4214    0.9760    0.0000 S   0  0  0  0  0  0  0  0  0  0  0  0
    2.7069    0.5635    0.0000 C   0  0  0  0  0  0  0  0  0  0  0  0
    1.9924    0.9760    0.0000 C   0  0  0  0  0  0  0  0  0  0  0  0
    1.2780    0.5635    0.0000 C   0  0  0  0  0  0  0  0  0  0  0  0
    0.5635    0.9760    0.0000 N   0  0  0  0  0  0  0  0  0  0  0  0
    0.5635    1.8010    0.0000 C   0  0  0  0  0  0  0  0  0  0  0  0
   -0.2615    1.8010    0.0000 C   0  0  0  0  0  0  0  0  0  0  0  0
   -0.2615    0.9760    0.0000 C   0  0  0  0  0  0  0  0  0  0  0  0
   -0.8449    0.3926    0.0000 O   0  0  0  0  0  0  0  0  0  0  0  0
   -0.8449    2.3843    0.0000 N   0  0  0  0  0  0  0  0  0  0  0  0
   -1.6418    2.1708    0.0000 C   0  0  0  0  0  0  0  0  0  0  0  0
   -1.8553    1.3739    0.0000 O   0  0  0  0  0  0  0  0  0  0  0  0
   -2.2251    2.7542    0.0000 C   0  0  0  0  0  0  0  0  0  0  0  0
   -3.0220    2.5407    0.0000 N   0  0  0  0  0  0  0  0  0  0  0  0
   -3.3177    1.7705    0.0000 C   0  0  0  0  0  0  0  0  0  0  0  0
   -4.1415    1.8136    0.0000 C   0  0  0  0  0  0  0  0  0  0  0  0
   -4.3551    2.6105    0.0000 C   0  0  0  0  0  0  0  0  0  0  0  0
   -3.6632    3.0598    0.0000 N   0  0  0  0  0  0  0  0  0  0  0  0
   -5.1253    2.9062    0.0000 C   0  0  0  0  0  0  0  0  0  0  0  0
   -5.7664    2.3870    0.0000 F   0  0  0  0  0  0  0  0  0  0  0  0
   -5.2543    3.7210    0.0000 F   0  0  0  0  0  0  0  0  0  0  0  0
   -2.8683    1.0786    0.0000 C   0  0  0  0  0  0  0  0  0  0  0  0
   -2.1333    0.7040    0.0000 C   0  0  0  0  0  0  0  0  0  0  0  0
   -2.8252    0.2547    0.0000 C   0  0  0  0  0  0  0  0  0  0  0  0
    1.2780    2.2135    0.0000 S   0  0  0  0  0  0  0  0  0  0  0  0
    1.9924    1.8010    0.0000 C   0  0  0  0  0  0  0  0  0  0  0  0
    1.2780   -0.2615    0.0000 C   0  0  0  0  0  0  0  0  0  0  0  0
    0.5635   -0.6740    0.0000 O   0  0  0  0  0  0  0  0  0  0  0  0
    1.9924   -0.6740    0.0000 O   0  0  0  0  0  0  0  0  0  0  0  0
  1  2  1  0  0  0  0 
  2  3  1  0  0  0  0 
  3  4  2  0  0  0  0 
  4  5  1  0  0  0  0 
  5  6  2  0  0  0  0 
  6  2  1  0  0  0  0 
  3  7  1  0  0  0  0 
  7  8  1  0  0  0  0 
  8  9  1  0  0  0  0 
  9 10  2  0  0  0  0 
 10 11  1  0  0  0  0 
 11 12  1  0  0  0  0 
 12 13  1  0  0  0  0 
 13 14  1  0  0  0  0 
 14 11  1  0  0  0  0 
 14 15  2  0  0  0  0 
 13 16  1  0  0  0  0 
 16 17  1  0  0  0  0 
 17 18  2  0  0  0  0 
 17 19  1  0  0  0  0 
 19 20  1  0  0  0  0 
 20 21  1  0  0  0  0 
 21 22  2  0  0  0  0 
 22 23  1  0  0  0  0 
 23 24  2  0  0  0  0 
 24 20  1  0  0  0  0 
 23 25  1  0  0  0  0 
 25 26  1  0  0  0  0 
 25 27  1  0  0  0  0 
 21 28  1  0  0  0  0 
 28 29  1  0  0  0  0 
 29 30  1  0  0  0  0 
 30 28  1  0  0  0  0 
 12 31  1  0  0  0  0 
 31 32  1  0  0  0  0 
 32  9  1  0  0  0  0 
 10 33  1  0  0  0  0 
 33 34  2  0  0  0  0 
 33 35  1  0  0  0  0 
M  END
> <ID>
CHEBI:107582

> <NAME>
7-[[2-[5-cyclopropyl-3-(difluoromethyl)-1-pyrazolyl]-1-oxoethyl]amino]-3-[[(1-methyl-5-tetrazolyl)thio]methyl]-8-oxo-5-thia-1-azabicyclo[4.2.0]oct-2-ene-2-carboxylic acid

> <STAR>
2

> <FORMULA>
C19H20F2N8O4S2

> <MASS>
526.543

> <MONOISOTOPIC_MASS>
526.10170

> <CHARGE>
0

> <SMILES>
CN1C(=NN=N1)SCC2=C(N3C(C(C3=O)NC(=O)CN4C(=CC(=N4)C(F)F)C5CC5)SC2)C(=O)O

> <INCHI>
InChI=1S/C19H20F2N8O4S2/c1-27-19(23-25-26-27)35-7-9-6-34-17-13(16(31)29(17)14(9)18(32)33)22-12(30)5-28-11(8-2-3-8)4-10(24-28)15(20)21/h4,8,13,15,17H,2-3,5-7H2,1H3,(H,22,30)(H,32,33)

> <INCHIKEY>
NGEHZQYUQUZTQF-UHFFFAOYSA-N

> <LINCS_ACCESSION>
LSM-18938

$$$$
null
  CDK     0224162332
null
 31 33  0  0  0  0  0  0  0  0999 V2000
   -0.7564   -4.6766    0.0000 C   0  0  0  0  0  0  0  0  0  0  0  0
   -1.3695   -4.1246    0.0000 C   0  0  0  0  0  0  0  0  0  0  0  0
   -2.1765   -4.2961    0.0000 C   0  0  0  0  0  0  0  0  0  0  0  0
   -2.5890   -3.5816    0.0000 C   0  0  0  0  0  0  0  0  0  0  0  0
   -2.0370   -2.9686    0.0000 N   0  0  0  0  0  0  0  0  0  0  0  0
   -1.2833   -3.3041    0.0000 N   0  0  0  0  0  0  0  0  0  0  0  0
   -0.5688   -2.8916    0.0000 C   0  0  0  0  0  0  0  0  0  0  0  0
    0.1457   -3.3041    0.0000 C   0  0  0  0  0  0  0  0  0  0  0  0
    0.1457   -4.1291    0.0000 C   0  0  0  0  0  0  0  0  0  0  0  0
    0.8601   -2.8916    0.0000 C   0  0  0  0  0  0  0  0  0  0  0  0
    0.8601   -2.0666    0.0000 O   0  0  0  0  0  0  0  0  0  0  0  0
    1.5746   -3.3041    0.0000 N   0  0  0  0  0  0  0  0  0  0  0  0
    2.2891   -2.8916    0.0000 C   0  0  0  0  0  0  0  0  0  0  0  0
    3.0860   -3.1051    0.0000 C   0  0  0  0  0  0  0  0  0  0  0  0
    3.2995   -2.3082    0.0000 N   0  0  0  0  0  0  0  0  0  0  0  0
    2.5026   -2.0947    0.0000 C   0  0  0  0  0  0  0  0  0  0  0  0
    2.0901   -1.3803    0.0000 O   0  0  0  0  0  0  0  0  0  0  0  0
    4.0964   -2.0947    0.0000 C   0  0  0  0  0  0  0  0  0  0  0  0
    4.6797   -2.6781    0.0000 C   0  0  0  0  0  0  0  0  0  0  0  0
    4.4662   -3.4750    0.0000 C   0  0  0  0  0  0  0  0  0  0  0  0
    3.6693   -3.6885    0.0000 S   0  0  0  0  0  0  0  0  0  0  0  0
    5.4766   -2.4646    0.0000 C   0  0  0  0  0  0  0  0  0  0  0  0
    6.0600   -3.0479    0.0000 O   0  0  0  0  0  0  0  0  0  0  0  0
    6.8569   -2.8344    0.0000 C   0  0  0  0  0  0  0  0  0  0  0  0
    7.4402   -3.4178    0.0000 O   0  0  0  0  0  0  0  0  0  0  0  0
    7.0704   -2.0375    0.0000 C   0  0  0  0  0  0  0  0  0  0  0  0
    4.3099   -1.2978    0.0000 C   0  0  0  0  0  0  0  0  0  0  0  0
    5.1068   -1.0843    0.0000 O   0  0  0  0  0  0  0  0  0  0  0  0
    3.7265   -0.7145    0.0000 O   0  0  0  0  0  0  0  0  0  0  0  0
   -3.4095   -3.4954    0.0000 C   0  0  0  0  0  0  0  0  0  0  0  0
   -2.5120   -5.0498    0.0000 Cl  0  0  0  0  0  0  0  0  0  0  0  0
  1  2  1  0  0  0  0 
  2  3  2  0  0  0  0 
  3  4  1  0  0  0  0 
  4  5  2  0  0  0  0 
  5  6  1  0  0  0  0 
  6  2  1  0  0  0  0 
  6  7  1  0  0  0  0 
  7  8  1  0  0  0  0 
  8  9  1  0  0  0  0 
  8 10  1  0  0  0  0 
 10 11  2  0  0  0  0 
 10 12  1  0  0  0  0 
 12 13  1  0  0  0  0 
 13 14  1  0  0  0  0 
 14 15  1  0  0  0  0 
 15 16  1  0  0  0  0 
 16 13  1  0  0  0  0 
 16 17  2  0  0  0  0 
 15 18  1  0  0  0  0 
 18 19  2  0  0  0  0 
 19 20  1  0  0  0  0 
 20 21  1  0  0  0  0 
 21 14  1  0  0  0  0 
 19 22  1  0  0  0  0 
 22 23  1  0  0  0  0 
 23 24  1  0  0  0  0 
 24 25  2  0  0  0  0 
 24 26  1  0  0  0  0 
 18 27  1  0  0  0  0 
 27 28  2  0  0  0  0 
 27 29  1  0  0  0  0 
  4 30  1  0  0  0  0 
  3 31  1  0  0  0  0 
M  END
> <ID>
CHEBI:108235

> <NAME>
3-(acetyloxymethyl)-7-[[3-(4-chloro-3,5-dimethyl-1-pyrazolyl)-2-methyl-1-oxopropyl]amino]-8-oxo-5-thia-1-azabicyclo[4.2.0]oct-2-ene-2-carboxylic acid

> <STAR>
2

> <FORMULA>
C19H23ClN4O6S

> <MASS>
470.929

> <MONOISOTOPIC_MASS>
470.10268

> <CHARGE>
0

> <SMILES>
CC1=C(C(=NN1CC(C)C(=O)NC2C3N(C2=O)C(=C(CS3)COC(=O)C)C(=O)O)C)Cl

> <INCHI>
InChI=1S/C19H23ClN4O6S/c1-8(5-23-10(3)13(20)9(2)22-23)16(26)21-14-17(27)24-15(19(28)29)12(6-30-11(4)25)7-31-18(14)24/h8,14,18H,5-7H2,1-4H3,(H,21,26)(H,28,29)

> <INCHIKEY>
GLWRNZFZGQSOCS-UHFFFAOYSA-N

> <LINCS_ACCESSION>
LSM-19612

$$$$
null
  CDK     0225161900
null
 32 35  0  0  0  0  0  0  0  0999 V2000
    0.4609   -3.5828    0.0000 C   0  0  0  0  0  0  0  0  0  0  0  0
   -0.2310   -4.0321    0.0000 C   0  0  0  0  0  0  0  0  0  0  0  0
   -0.2742   -4.8560    0.0000 C   0  0  0  0  0  0  0  0  0  0  0  0
   -1.0711   -5.0695    0.0000 C   0  0  0  0  0  0  0  0  0  0  0  0
   -1.5204   -4.3776    0.0000 N   0  0  0  0  0  0  0  0  0  0  0  0
   -1.0012   -3.7365    0.0000 N   0  0  0  0  0  0  0  0  0  0  0  0
   -1.2147   -2.9396    0.0000 C   0  0  0  0  0  0  0  0  0  0  0  0
   -0.6314   -2.3562    0.0000 C   0  0  0  0  0  0  0  0  0  0  0  0
    0.1655   -2.5698    0.0000 O   0  0  0  0  0  0  0  0  0  0  0  0
   -0.8449   -1.5593    0.0000 N   0  0  0  0  0  0  0  0  0  0  0  0
   -0.2615   -0.9760    0.0000 C   0  0  0  0  0  0  0  0  0  0  0  0
    0.5635   -0.9760    0.0000 C   0  0  0  0  0  0  0  0  0  0  0  0
    0.5635   -0.1510    0.0000 N   0  0  0  0  0  0  0  0  0  0  0  0
   -0.2615   -0.1510    0.0000 C   0  0  0  0  0  0  0  0  0  0  0  0
   -0.8449    0.4324    0.0000 O   0  0  0  0  0  0  0  0  0  0  0  0
    1.2780    0.2615    0.0000 C   0  0  0  0  0  0  0  0  0  0  0  0
    1.9924   -0.1510    0.0000 C   0  0  0  0  0  0  0  0  0  0  0  0
    1.9924   -0.9760    0.0000 C   0  0  0  0  0  0  0  0  0  0  0  0
    1.2780   -1.3885    0.0000 S   0  0  0  0  0  0  0  0  0  0  0  0
    2.7069    0.2615    0.0000 C   0  0  0  0  0  0  0  0  0  0  0  0
    3.4214   -0.1510    0.0000 S   0  0  0  0  0  0  0  0  0  0  0  0
    4.1358    0.2615    0.0000 C   0  0  0  0  0  0  0  0  0  0  0  0
    4.2221    1.0820    0.0000 N   0  0  0  0  0  0  0  0  0  0  0  0
    5.0290    1.2535    0.0000 N   0  0  0  0  0  0  0  0  0  0  0  0
    5.4415    0.5391    0.0000 C   0  0  0  0  0  0  0  0  0  0  0  0
    4.8895   -0.0740    0.0000 S   0  0  0  0  0  0  0  0  0  0  0  0
    6.2620    0.4528    0.0000 C   0  0  0  0  0  0  0  0  0  0  0  0
    1.2780    1.0865    0.0000 C   0  0  0  0  0  0  0  0  0  0  0  0
    1.9924    1.4990    0.0000 O   0  0  0  0  0  0  0  0  0  0  0  0
    0.5635    1.4990    0.0000 O   0  0  0  0  0  0  0  0  0  0  0  0
   -1.3667   -5.8397    0.0000 C   0  0  0  0  0  0  0  0  0  0  0  0
    0.3670   -5.3752    0.0000 Cl  0  0  0  0  0  0  0  0  0  0  0  0
  1  2  1  0  0  0  0 
  2  3  2  0  0  0  0 
  3  4  1  0  0  0  0 
  4  5  2  0  0  0  0 
  5  6  1  0  0  0  0 
  6  2  1  0  0  0  0 
  6  7  1  0  0  0  0 
  7  8  1  0  0  0  0 
  8  9  2  0  0  0  0 
  8 10  1  0  0  0  0 
 10 11  1  0  0  0  0 
 11 12  1  0  0  0  0 
 12 13  1  0  0  0  0 
 13 14  1  0  0  0  0 
 14 11  1  0  0  0  0 
 14 15  2  0  0  0  0 
 13 16  1  0  0  0  0 
 16 17  2  0  0  0  0 
 17 18  1  0  0  0  0 
 18 19  1  0  0  0  0 
 19 12  1  0  0  0  0 
 17 20  1  0  0  0  0 
 20 21  1  0  0  0  0 
 21 22  1  0  0  0  0 
 22 23  2  0  0  0  0 
 23 24  1  0  0  0  0 
 24 25  2  0  0  0  0 
 25 26  1  0  0  0  0 
 26 22  1  0  0  0  0 
 25 27  1  0  0  0  0 
 16 28  1  0  0  0  0 
 28 29  2  0  0  0  0 
 28 30  1  0  0  0  0 
  4 31  1  0  0  0  0 
  3 32  1  0  0  0  0 
M  END
> <ID>
CHEBI:114484

> <NAME>
7-[[2-(4-chloro-3,5-dimethyl-1-pyrazolyl)-1-oxoethyl]amino]-3-[[(5-methyl-1,3,4-thiadiazol-2-yl)thio]methyl]-8-oxo-5-thia-1-azabicyclo[4.2.0]oct-2-ene-2-carboxylic acid

> <STAR>
2

> <FORMULA>
C18H19ClN6O4S3

> <MASS>
515.033

> <MONOISOTOPIC_MASS>
514.03184

> <CHARGE>
0

> <SMILES>
CC1=C(C(=NN1CC(=O)NC2C3N(C2=O)C(=C(CS3)CSC4=NN=C(S4)C)C(=O)O)C)Cl

> <INCHI>
InChI=1S/C18H19ClN6O4S3/c1-7-12(19)8(2)24(23-7)4-11(26)20-13-15(27)25-14(17(28)29)10(5-30-16(13)25)6-31-18-22-21-9(3)32-18/h13,16H,4-6H2,1-3H3,(H,20,26)(H,28,29)

> <INCHIKEY>
UYNAOHKTVNWMQR-UHFFFAOYSA-N

> <LINCS_ACCESSION>
LSM-25945

$$$$
null
  CDK     0225161901
null
 32 35  0  0  0  0  0  0  0  0999 V2000
   -4.6607   -0.3475    0.0000 C   0  0  0  0  0  0  0  0  0  0  0  0
   -4.1415   -0.9886    0.0000 C   0  0  0  0  0  0  0  0  0  0  0  0
   -3.3177   -0.9455    0.0000 N   0  0  0  0  0  0  0  0  0  0  0  0
   -3.0220   -1.7157    0.0000 N   0  0  0  0  0  0  0  0  0  0  0  0
   -3.6632   -2.2348    0.0000 C   0  0  0  0  0  0  0  0  0  0  0  0
   -4.3551   -1.7855    0.0000 C   0  0  0  0  0  0  0  0  0  0  0  0
   -5.1253   -2.0812    0.0000 Cl  0  0  0  0  0  0  0  0  0  0  0  0
   -2.2251   -1.9292    0.0000 C   0  0  0  0  0  0  0  0  0  0  0  0
   -2.0116   -2.7261    0.0000 C   0  0  0  0  0  0  0  0  0  0  0  0
   -1.6418   -1.3458    0.0000 C   0  0  0  0  0  0  0  0  0  0  0  0
   -1.8553   -0.5489    0.0000 O   0  0  0  0  0  0  0  0  0  0  0  0
   -0.8449   -1.5593    0.0000 N   0  0  0  0  0  0  0  0  0  0  0  0
   -0.2615   -0.9760    0.0000 C   0  0  0  0  0  0  0  0  0  0  0  0
    0.5635   -0.9760    0.0000 C   0  0  0  0  0  0  0  0  0  0  0  0
    0.5635   -0.1510    0.0000 N   0  0  0  0  0  0  0  0  0  0  0  0
   -0.2615   -0.1510    0.0000 C   0  0  0  0  0  0  0  0  0  0  0  0
   -0.8449    0.4324    0.0000 O   0  0  0  0  0  0  0  0  0  0  0  0
    1.2780    0.2615    0.0000 C   0  0  0  0  0  0  0  0  0  0  0  0
    1.9924   -0.1510    0.0000 C   0  0  0  0  0  0  0  0  0  0  0  0
    1.9924   -0.9760    0.0000 C   0  0  0  0  0  0  0  0  0  0  0  0
    1.2780   -1.3885    0.0000 S   0  0  0  0  0  0  0  0  0  0  0  0
    2.7069    0.2615    0.0000 C   0  0  0  0  0  0  0  0  0  0  0  0
    2.7069    1.0865    0.0000 S   0  0  0  0  0  0  0  0  0  0  0  0
    3.4214    1.4990    0.0000 C   0  0  0  0  0  0  0  0  0  0  0  0
    3.5076    2.3195    0.0000 N   0  0  0  0  0  0  0  0  0  0  0  0
    4.3146    2.4910    0.0000 N   0  0  0  0  0  0  0  0  0  0  0  0
    4.7271    1.7766    0.0000 N   0  0  0  0  0  0  0  0  0  0  0  0
    4.1750    1.1635    0.0000 N   0  0  0  0  0  0  0  0  0  0  0  0
    4.3466    0.3565    0.0000 C   0  0  0  0  0  0  0  0  0  0  0  0
    1.2780    1.0865    0.0000 C   0  0  0  0  0  0  0  0  0  0  0  0
    1.9924    1.4990    0.0000 O   0  0  0  0  0  0  0  0  0  0  0  0
    0.5635    1.4990    0.0000 O   0  0  0  0  0  0  0  0  0  0  0  0
  1  2  1  0  0  0  0 
  2  3  2  0  0  0  0 
  3  4  1  0  0  0  0 
  4  5  1  0  0  0  0 
  5  6  2  0  0  0  0 
  6  2  1  0  0  0  0 
  6  7  1  0  0  0  0 
  4  8  1  0  0  0  0 
  8  9  1  0  0  0  0 
  8 10  1  0  0  0  0 
 10 11  2  0  0  0  0 
 10 12  1  0  0  0  0 
 12 13  1  0  0  0  0 
 13 14  1  0  0  0  0 
 14 15  1  0  0  0  0 
 15 16  1  0  0  0  0 
 16 13  1  0  0  0  0 
 16 17  2  0  0  0  0 
 15 18  1  0  0  0  0 
 18 19  2  0  0  0  0 
 19 20  1  0  0  0  0 
 20 21  1  0  0  0  0 
 21 14  1  0  0  0  0 
 19 22  1  0  0  0  0 
 22 23  1  0  0  0  0 
 23 24  1  0  0  0  0 
 24 25  2  0  0  0  0 
 25 26  1  0  0  0  0 
 26 27  2  0  0  0  0 
 27 28  1  0  0  0  0 
 28 24  1  0  0  0  0 
 28 29  1  0  0  0  0 
 18 30  1  0  0  0  0 
 30 31  2  0  0  0  0 
 30 32  1  0  0  0  0 
M  END
> <ID>
CHEBI:116691

> <NAME>
7-[[2-(4-chloro-3-methyl-1-pyrazolyl)-1-oxopropyl]amino]-3-[[(1-methyl-5-tetrazolyl)thio]methyl]-8-oxo-5-thia-1-azabicyclo[4.2.0]oct-2-ene-2-carboxylic acid

> <STAR>
2

> <FORMULA>
C17H19ClN8O4S2

> <MASS>
498.970

> <MONOISOTOPIC_MASS>
498.06592

> <CHARGE>
0

> <SMILES>
CC1=NN(C=C1Cl)C(C)C(=O)NC2C3N(C2=O)C(=C(CS3)CSC4=NN=NN4C)C(=O)O

> <INCHI>
InChI=1S/C17H19ClN8O4S2/c1-7-10(18)4-25(21-7)8(2)13(27)19-11-14(28)26-12(16(29)30)9(5-31-15(11)26)6-32-17-20-22-23-24(17)3/h4,8,11,15H,5-6H2,1-3H3,(H,19,27)(H,29,30)

> <INCHIKEY>
FTBJSGFGEYXEHS-UHFFFAOYSA-N

> <LINCS_ACCESSION>
LSM-28146

$$$$

Marvin  10150916492D          

 12 12  0  0  0  0            999 V2000
   14.9670  -13.9209    0.0000 C   0  0  0  0  0  0  0  0  0  0  0  0
   15.6815  -14.3334    0.0000 C   0  0  0  0  0  0  0  0  0  0  0  0
   14.9670  -13.0958    0.0000 O   0  0  0  0  0  0  0  0  0  0  0  0
   15.6815  -15.1584    0.0000 C   0  0  0  0  0  0  0  0  0  0  0  0
   16.3960  -13.9209    0.0000 C   0  0  0  0  0  0  0  0  0  0  0  0
   17.1105  -15.1584    0.0000 C   0  0  0  0  0  0  0  0  0  0  0  0
   14.2525  -14.3334    0.0000 O   0  0  0  0  0  0  0  0  0  0  0  0
   17.8249  -15.5709    0.0000 N   0  0  0  0  0  0  0  0  0  0  0  0
   17.1105  -14.3334    0.0000 C   0  0  0  0  0  0  0  0  0  0  0  0
   16.3960  -15.5709    0.0000 C   0  0  0  0  0  0  0  0  0  0  0  0
   13.5381  -13.9209    0.0000 C   0  0  0  0  0  0  0  0  0  0  0  0
   12.8236  -14.3334    0.0000 C   0  0  0  0  0  0  0  0  0  0  0  0
  2  1  1  0  0  0  0
  3  1  2  0  0  0  0
  4  2  1  0  0  0  0
  5  2  2  0  0  0  0
  6  9  2  0  0  0  0
  7  1  1  0  0  0  0
  8  6  1  0  0  0  0
  9  5  1  0  0  0  0
 10  4  2  0  0  0  0
 11  7  1  0  0  0  0
 12 11  1  0  0  0  0
 10  6  1  0  0  0  0
M  END
> <ID>
CHEBI:116735

> <NAME>
benzocaine

> <DEFINITION>
A benzoate ester having 4-aminobenzoic acid as the acid component and ethanol as the alcohol component. A surface anaesthetic, it is used to suppress the gag reflex, and as a lubricant and topical anaesthetic on the larynx, mouth, nasal cavity, respiratory tract, oesophagus, rectum, urinary tract, and vagina.

> <STAR>
3

> <SECONDARY_ID>
CHEBI:3030

> <SYNONYM>
p-Ethoxycarboxylic aniline; p-Carbethoxyaniline; p-(Ethoxycarbonyl)aniline; Ethyl p-aminophenylcarboxylate; Ethyl p-aminobenzoate; Ethyl aminobenzoate; Amben ethyl ester; 4-aminobenzoic acid ethyl ester

> <IUPAC_NAME>
ethyl 4-aminobenzoate

> <INN>
Benzocainum; Benzocaine; Benzocaina

> <FORMULA>
C9H11NO2

> <MASS>
165.18910

> <MONOISOTOPIC_MASS>
165.07898

> <CHARGE>
0

> <SMILES>
CCOC(=O)c1ccc(N)cc1

> <INCHI>
InChI=1S/C9H11NO2/c1-2-12-9(11)7-3-5-8(10)6-4-7/h3-6H,2,10H2,1H3

> <INCHIKEY>
BLFLLBZGZJTVJG-UHFFFAOYSA-N

> <BEILSTEIN_REGISTRY_NUMBER>
638434

> <CAS_REGISTRY_NUMBER>
94-09-7

> <REAXYS_REGISTRY_NUMBER>
638434

> <CHEMIDPLUS>
94-09-7

> <DRUGBANK_ACCESSION>
DB01086

> <HMDB_ACCESSION>
HMDB0004992

> <KEGG_COMPOUND_ACCESSION>
C07527

> <KEGG_DRUG_ACCESSION>
D00552

> <LINCS_ACCESSION>
LSM-5830

> <NIST_CHEMISTRY_WEBBOOK>
94-09-7

> <WIKIPEDIA_ACCESSION>
Benzocaine

> <PUBMED_CITATION>
10866370; 12574744; 12873507; 16640711; 18971079; 21616561; 22015737; 22105694; 22551703; 22556388; 23301559; 23565580; 23696166; 25097477; 2579237; 29079364; 1155304

$$$$

Marvin  02161011452D          

 19 20  0  0  0  0            999 V2000
    9.1946   -1.8375    0.0000 N   0  0  0  0  0  0  0  0  0  0  0  0
    8.4821   -1.4167    0.0000 C   0  0  0  0  0  0  0  0  0  0  0  0
    7.7654   -1.8292    0.0000 C   0  0  0  0  0  0  0  0  0  0  0  0
    9.1946   -2.6625    0.0000 C   0  0  0  0  0  0  0  0  0  0  0  0
    8.4821   -3.0750    0.0000 N   0  0  0  0  0  0  0  0  0  0  0  0
    4.9154   -1.8125    0.0000 C   0  0  0  0  0  0  0  0  0  0  0  0
    7.7654   -2.6625    0.0000 C   0  0  0  0  0  0  0  0  0  0  0  0
    7.0529   -1.4167    0.0000 C   0  0  0  0  0  0  0  0  0  0  0  0
    4.9071   -2.6417    0.0000 C   0  0  0  0  0  0  0  0  0  0  0  0
    5.6321   -1.4042    0.0000 C   0  0  0  0  0  0  0  0  0  0  0  0
    6.3404   -1.8250    0.0000 C   0  0  0  0  0  0  0  0  0  0  0  0
    8.4904   -0.5917    0.0000 N   0  0  0  0  0  0  0  0  0  0  0  0
    5.6279   -3.0542    0.0000 C   0  0  0  0  0  0  0  0  0  0  0  0
    9.9154   -3.0750    0.0000 N   0  0  0  0  0  0  0  0  0  0  0  0
    6.3404   -2.6500    0.0000 C   0  0  0  0  0  0  0  0  0  0  0  0
    4.2029   -1.3917    0.0000 O   0  0  0  0  0  0  0  0  0  0  0  0
    4.1904   -3.0542    0.0000 O   0  0  0  0  0  0  0  0  0  0  0  0
    3.4904   -1.8042    0.0000 C   0  0  0  0  0  0  0  0  0  0  0  0
    4.1904   -3.8792    0.0000 C   0  0  0  0  0  0  0  0  0  0  0  0
  2  1  1  0  0  0  0
  3  2  2  0  0  0  0
  4  1  2  0  0  0  0
  5  4  1  0  0  0  0
  6 10  2  0  0  0  0
  7  5  2  0  0  0  0
  8  3  1  0  0  0  0
  9 13  2  0  0  0  0
 10 11  1  0  0  0  0
 11  8  1  0  0  0  0
 12  2  1  0  0  0  0
 13 15  1  0  0  0  0
 14  4  1  0  0  0  0
 15 11  2  0  0  0  0
 16  6  1  0  0  0  0
 17  9  1  0  0  0  0
 18 16  1  0  0  0  0
 19 17  1  0  0  0  0
  3  7  1  0  0  0  0
  6  9  1  0  0  0  0
M  END
> <ID>
CHEBI:123115

> <NAME>
diaveridine

> <DEFINITION>
An aminopyrimidine in which the pyrimidine ring carries amino substituents at C-2 and C-4 and a 3,4-dimethoxybenzyl group at C-5. A folic acid antagonist, it is used as a synergist with sulfonamides against the parasitic Eimeria species.

> <STAR>
3

> <SYNONYM>
Diaveridin; 5-(3,4-Dimethoxy-benzyl)-pyrimidine-2,4-diamine; 5-((3,4-Dimethoxyphenyl)methyl)-2,4-pyrimidinediamine; 2,4-Diamino-5-veratrylpyrimidine; 2,4-Diamino-5-(3,4-dimethoxybenzyl)pyrimidine

> <IUPAC_NAME>
5-(3,4-dimethoxybenzyl)pyrimidine-2,4-diamine

> <INN>
diaveridinum; diaveridine; diaveridina

> <FORMULA>
C13H16N4O2

> <MASS>
260.29170

> <MONOISOTOPIC_MASS>
260.12733

> <CHARGE>
0

> <SMILES>
COc1ccc(Cc2cnc(N)nc2N)cc1OC

> <INCHI>
InChI=1S/C13H16N4O2/c1-18-10-4-3-8(6-11(10)19-2)5-9-7-16-13(15)17-12(9)14/h3-4,6-7H,5H2,1-2H3,(H4,14,15,16,17)

> <INCHIKEY>
LDBTVAXGKYIFHO-UHFFFAOYSA-N

> <BEILSTEIN_REGISTRY_NUMBER>
0258464

> <CAS_REGISTRY_NUMBER>
5355-16-8

> <REAXYS_REGISTRY_NUMBER>
258464

> <CHEMIDPLUS>
5355-16-8

> <KEGG_DRUG_ACCESSION>
D03771

> <PUBMED_CITATION>
21781790; 2327254; 24999617; 3377143; 4982548; 8911701

$$$$

Marvin  02221013182D          

 28 30  0  0  0  0            999 V2000
   -3.5887   -0.9989    0.0000 S   0  0  0  0  0  0  0  0  0  0  0  0
   -4.2561   -0.5140    0.0000 C   0  0  0  0  0  0  0  0  0  0  0  0
   -4.0012    0.2706    0.0000 C   0  0  0  0  0  0  0  0  0  0  0  0
   -3.1762    0.2706    0.0000 C   0  0  0  0  0  0  0  0  0  0  0  0
   -2.9212   -0.5140    0.0000 C   0  0  0  0  0  0  0  0  0  0  0  0
   -2.2068   -0.9265    0.0000 C   0  0  0  0  0  0  0  0  0  0  0  0
   -1.4923   -0.5140    0.0000 C   0  0  0  0  0  0  0  0  0  0  0  0
   -0.7778   -0.9265    0.0000 N   0  0  0  0  0  0  0  0  0  0  0  0
    0.0191   -1.5379    0.0000 C   0  0  0  0  0  0  0  0  0  0  0  0
    0.0191   -0.7129    0.0000 C   0  0  2  0  0  0  0  0  0  0  0  0
    0.8441   -1.5379    0.0000 N   0  0  0  0  0  0  0  0  0  0  0  0
    0.8441   -0.7129    0.0000 C   0  0  2  0  0  0  0  0  0  0  0  0
    1.5585   -1.9504    0.0000 C   0  0  0  0  0  0  0  0  0  0  0  0
    1.5585   -0.3004    0.0000 S   0  0  0  0  0  0  0  0  0  0  0  0
    2.2730   -0.7129    0.0000 C   0  0  0  0  0  0  0  0  0  0  0  0
    2.2730   -1.5379    0.0000 C   0  0  0  0  0  0  0  0  0  0  0  0
    2.9875   -1.9504    0.0000 C   0  0  0  0  0  0  0  0  0  0  0  0
    3.7019   -1.5379    0.0000 O   0  0  0  0  0  0  0  0  0  0  0  0
    4.4164   -1.9504    0.0000 C   0  0  0  0  0  0  0  0  0  0  0  0
    5.1309   -1.5379    0.0000 C   0  0  0  0  0  0  0  0  0  0  0  0
    1.5585   -2.7754    0.0000 C   0  0  0  0  0  0  0  0  0  0  0  0
   -1.4923    0.3110    0.0000 O   0  0  0  0  0  0  0  0  0  0  0  0
   -0.5643   -2.1213    0.0000 O   0  0  0  0  0  0  0  0  0  0  0  0
    0.8441   -3.1879    0.0000 O   0  0  0  0  0  0  0  0  0  0  0  0
    2.2730   -3.1879    0.0000 O   0  0  0  0  0  0  0  0  0  0  0  0
    4.4164   -2.7754    0.0000 O   0  0  0  0  0  0  0  0  0  0  0  0
    0.8441    0.1121    0.0000 H   0  0  0  0  0  0  0  0  0  0  0  0
    0.0191    0.1121    0.0000 H   0  0  0  0  0  0  0  0  0  0  0  0
  1  2  1  0  0  0  0
  1  5  1  0  0  0  0
  2  3  2  0  0  0  0
  3  4  1  0  0  0  0
  4  5  2  0  0  0  0
  5  6  1  0  0  0  0
  6  7  1  0  0  0  0
  7  8  1  0  0  0  0
  9 10  1  0  0  0  0
  9 11  1  0  0  0  0
 12 10  1  0  0  0  0
 13 11  1  0  0  0  0
 11 12  1  0  0  0  0
 12 14  1  0  0  0  0
 13 16  2  0  0  0  0
 14 15  1  0  0  0  0
 15 16  1  0  0  0  0
 16 17  1  0  0  0  0
 17 18  1  0  0  0  0
 18 19  1  0  0  0  0
 19 20  1  0  0  0  0
 13 21  1  0  0  0  0
  7 22  2  0  0  0  0
 10  8  1  1  0  0  0
  9 23  2  0  0  0  0
 21 24  2  0  0  0  0
 21 25  1  0  0  0  0
 19 26  2  0  0  0  0
 12 27  1  6  0  0  0
 10 28  1  6  0  0  0
M  END
> <ID>
CHEBI:124991

> <NAME>
cefalotin

> <DEFINITION>
A semisynthetic, first-generation cephalosporin antibiotic with acetoxymethyl and (2-thienylacetyl)nitrilo moieties at positions 3 and 7, respectively, of the core structure. Administered parenterally during surgery and to treat a wide spectrum of blood infections.

> <STAR>
3

> <SECONDARY_ID>
CHEBI:41547; CHEBI:50895

> <SYNONYM>
CET; Cephalotin; CEPHALOTHIN; Cephalothin; Cefalotin; Cefalothin; 7-(Thiophene-2-acetamido)cephalosporin; 7-(2-Thienylacetamido)cephalosporanic acid; 7-(2'-thienylacetamido)cephalosporanic acid; 3-Acetoxymethyl-7-(2-thienylacetamido)-3-cephem-4-carboxylic acid

> <IUPAC_NAME>
7beta-(thiophen-2-ylacetamido)-3-acetoxymethyl-3,4-didehydrocepham-4-carboxylic acid; (6R,7R)-3-(acetoxymethyl)-8-oxo-7-(thiophen-2-ylacetamido)-5-thia-1-azabicyclo[4.2.0]oct-2-ene-2-carboxylic acid

> <INN>
cefalotinum; cefalotine; cefalotina; cefalotin

> <FORMULA>
C16H16N2O6S2

> <MASS>
396.43800

> <MONOISOTOPIC_MASS>
396.04498

> <CHARGE>
0

> <SMILES>
[H][C@@]1(NC(=O)Cc2cccs2)C(=O)N2C(C(O)=O)=C(COC(C)=O)CS[C@]12[H]

> <INCHI>
InChI=1S/C16H16N2O6S2/c1-8(19)24-6-9-7-26-15-12(14(21)18(15)13(9)16(22)23)17-11(20)5-10-3-2-4-25-10/h2-4,12,15H,5-7H2,1H3,(H,17,20)(H,22,23)/t12-,15-/m1/s1

> <INCHIKEY>
XIURVHNZVLADCM-IUODEOHRSA-N

> <BEILSTEIN_REGISTRY_NUMBER>
945586

> <CAS_REGISTRY_NUMBER>
153-61-7

> <REAXYS_REGISTRY_NUMBER>
945586

> <CHEMIDPLUS>
153-61-7

> <DRUGBANK_ACCESSION>
DB00456

> <HMDB_ACCESSION>
HMDB0014599

> <KEGG_COMPOUND_ACCESSION>
C07761

> <KEGG_DRUG_ACCESSION>
D07635

> <LINCS_ACCESSION>
LSM-15184

> <PDBECHEM_ACCESSION>
CLS

> <WIKIPEDIA_ACCESSION>
Cephalothin

> <PUBMED_CITATION>
1384868; 13963283; 1701026; 2083978; 23472927; 23680238; 29017833; 6176550; 10930630; 12569987; 12833570

$$$$

Ketcher 04151615342D 1   1.00000     0.00000     0

 32 34  0     1  0            999 V2000
   23.4177  -17.1823    0.0000 C   0  0  0  0  0  0  0  0  0  0  0  0
   22.5515  -16.6822    0.0000 N   0  0  0  0  0  0  0  0  0  0  0  0
   22.5515  -15.6818    0.0000 C   0  0  0  0  0  0  0  0  0  0  0  0
   23.4177  -15.1816    0.0000 S   0  0  0  0  0  0  0  0  0  0  0  0
   24.2839  -15.6818    0.0000 C   0  0  0  0  0  0  0  0  0  0  0  0
   24.2839  -16.6822    0.0000 C   0  0  0  0  0  0  0  0  0  0  0  0
   25.1502  -17.1823    0.0000 C   0  0  0  0  0  0  0  0  0  0  0  0
   23.4177  -18.1826    0.0000 C   0  0  0  0  0  0  0  0  0  0  0  0
   22.5515  -18.6828    0.0000 O   0  0  0  0  0  0  0  0  0  0  0  0
   24.2839  -18.6828    0.0000 O   0  0  0  0  0  0  0  0  0  0  0  0
   26.0165  -16.6822    0.0000 O   0  0  0  0  0  0  0  0  0  0  0  0
   21.5512  -15.6818    0.0000 C   0  0  0  0  0  0  0  0  0  0  0  0
   21.5512  -16.6822    0.0000 C   0  0  0  0  0  0  0  0  0  0  0  0
   20.8438  -17.3894    0.0000 O   0  0  0  0  0  0  0  0  0  0  0  0
   20.6854  -15.1798    0.0000 N   0  0  0  0  0  0  0  0  0  0  0  0
   20.6880  -14.1796    0.0000 C   0  0  0  0  0  0  0  0  0  0  0  0
   19.8230  -13.6772    0.0000 C   0  0  0  0  0  0  0  0  0  0  0  0
   21.5555  -13.6817    0.0000 O   0  0  0  0  0  0  0  0  0  0  0  0
   18.9554  -14.1750    0.0000 C   0  0  0  0  0  0  0  0  0  0  0  0
   19.8258  -12.6772    0.0000 C   0  0  0  0  0  0  0  0  0  0  0  0
   18.9528  -15.1753    0.0000 C   0  0  0  0  0  0  0  0  0  0  0  0
   20.6367  -12.0915    0.0000 N   0  0  0  0  0  0  0  0  0  0  0  0
   20.3302  -11.1392    0.0000 C   0  0  0  0  0  0  0  0  0  0  0  0
   19.3299  -11.1364    0.0000 S   0  0  0  0  0  0  0  0  0  0  0  0
   19.0182  -12.0870    0.0000 C   0  0  0  0  0  0  0  0  0  0  0  0
   20.9205  -10.3316    0.0000 N   0  0  0  0  0  0  0  0  0  0  0  0
   22.5574  -14.6865    0.0000 H   0  0  0  0  0  0  0  0  0  0  0  0
   21.5571  -14.6865    0.0000 H   0  0  0  0  0  0  0  0  0  0  0  0
   19.8175  -15.6775    0.0000 C   0  0  0  0  0  0  0  0  0  0  0  0
   26.0165  -15.6822    0.0000 C   0  0  0  0  0  0  0  0  0  0  0  0
   26.8826  -15.1822    0.0000 N   0  0  0  0  0  0  0  0  0  0  0  0
   25.1505  -15.1822    0.0000 O   0  0  0  0  0  0  0  0  0  0  0  0
  1  2  1  0     0  0
  2  3  1  0     0  0
  3  4  1  0     0  0
  4  5  1  0     0  0
  5  6  1  0     0  0
  6  1  2  0     0  0
  6  7  1  0     0  0
  1  8  1  0     0  0
  8  9  2  0     0  0
  8 10  1  0     0  0
  7 11  1  0     0  0
  3 12  1  0     0  0
  2 13  1  0     0  0
 12 13  1  0     0  0
 13 14  2  0     0  0
 12 15  1  1     0  0
 15 16  1  0     0  0
 16 17  1  0     0  0
 16 18  2  0     0  0
 17 19  2  0     0  0
 17 20  1  0     0  0
 19 21  1  0     0  0
 20 22  1  0     0  0
 22 23  2  0     0  0
 23 24  1  0     0  0
 24 25  1  0     0  0
 25 20  2  0     0  0
 23 26  1  0     0  0
  3 27  1  6     0  0
 12 28  1  6     0  0
 21 29  1  0     0  0
 11 30  1  0     0  0
 30 31  1  0     0  0
 30 32  2  0     0  0
M  END
> <ID>
CHEBI:131729

> <NAME>
cefcapene

> <DEFINITION>
A cephalosporin compound having (carbamoyloxy)methyl and N-[(2Z)-2-(2-amino-1,3-thiazol-4-yl)pent-2-enoyl]amino side-groups. It is used (generally as the corresponnding pivaloyloxymethyl ester prodrug) as an oral antibacterial.

> <STAR>
3

> <SYNONYM>
CFPN

> <IUPAC_NAME>
(6R,7R)-7-{[(2Z)-2-(2-amino-1,3-thiazol-4-yl)pent-2-enoyl]amino}-3-[(carbamoyloxy)methyl]-8-oxo-5-thia-1-azabicyclo[4.2.0]oct-2-ene-2-carboxylic acid

> <INN>
cefcapenum; cefcapeno; cefcapene; cefcapene

> <FORMULA>
C17H19N5O6S2

> <MASS>
453.496

> <MONOISOTOPIC_MASS>
453.07768

> <CHARGE>
0

> <SMILES>
C=1(N2[C@](SCC1COC(N)=O)([C@@](C2=O)(NC(/C(=C\CC)/C=3N=C(SC3)N)=O)[H])[H])C(=O)O

> <INCHI>
InChI=1S/C17H19N5O6S2/c1-2-3-8(9-6-30-16(18)20-9)12(23)21-10-13(24)22-11(15(25)26)7(4-28-17(19)27)5-29-14(10)22/h3,6,10,14H,2,4-5H2,1H3,(H2,18,20)(H2,19,27)(H,21,23)(H,25,26)/b8-3-/t10-,14-/m1/s1

> <INCHIKEY>
HJJRIJDTIPFROI-NVKITGPLSA-N

> <CAS_REGISTRY_NUMBER>
135889-00-8

> <REAXYS_REGISTRY_NUMBER>
6945919

> <CHEMIDPLUS>
135889-00-8

> <KEGG_DRUG_ACCESSION>
D07638

> <WIKIPEDIA_ACCESSION>
Cefcapene

> <PUBMED_CITATION>
12373482; 29017833

$$$$

Ketcher 04141615302D 1   1.00000     0.00000     0

 33 36  0     1  0            999 V2000
   26.0035   -7.1742    0.0000 N   0  0  0  0  0  0  0  0  0  0  0  0
   27.0034   -7.1772    0.0000 N   0  0  0  0  0  0  0  0  0  0  0  0
   27.3097   -8.1290    0.0000 C   0  0  0  0  0  0  0  0  0  0  0  0
   26.4991   -8.7143    0.0000 C   0  0  0  0  0  0  0  0  0  0  0  0
   25.6918   -8.1244    0.0000 N   0  0  0  0  0  0  0  0  0  0  0  0
   26.4962   -9.7142    0.0000 S   0  0  0  0  0  0  0  0  0  0  0  0
   25.5822  -10.1206    0.0000 C   0  0  0  0  0  0  0  0  0  0  0  0
   24.7733   -9.5328    0.0000 C   0  0  0  0  0  0  0  0  0  0  0  0
   23.9074  -10.0328    0.0000 C   0  0  0  0  0  0  0  0  0  0  0  0
   23.0415   -9.5328    0.0000 N   0  0  0  0  0  0  0  0  0  0  0  0
   23.0413   -8.5329    0.0000 C   0  0  0  0  0  0  0  0  0  0  0  0
   23.9074   -8.0330    0.0000 S   0  0  0  0  0  0  0  0  0  0  0  0
   24.7733   -8.5329    0.0000 C   0  0  0  0  0  0  0  0  0  0  0  0
   23.9074  -11.0327    0.0000 C   0  0  0  0  0  0  0  0  0  0  0  0
   23.0415  -11.5327    0.0000 O   0  0  0  0  0  0  0  0  0  0  0  0
   24.7733  -11.5327    0.0000 O   0  0  0  0  0  0  0  0  0  0  0  0
   22.0416   -9.5328    0.0000 C   0  0  0  0  0  0  0  0  0  0  0  0
   22.0414   -8.5329    0.0000 C   0  0  0  0  0  0  0  0  0  0  0  0
   21.3345  -10.2399    0.0000 O   0  0  0  0  0  0  0  0  0  0  0  0
   21.1743   -8.0349    0.0000 N   0  0  0  0  0  0  0  0  0  0  0  0
   21.1697   -7.0350    0.0000 C   0  0  0  0  0  0  0  0  0  0  0  0
   20.3015   -6.5391    0.0000 C   0  0  0  0  0  0  0  0  0  0  0  0
   22.0334   -6.5312    0.0000 O   0  0  0  0  0  0  0  0  0  0  0  0
   19.4379   -7.0429    0.0000 N   0  0  0  0  0  0  0  0  0  0  0  0
   20.2970   -5.5392    0.0000 C   0  0  0  0  0  0  0  0  0  0  0  0
   21.1606   -5.0354    0.0000 C   0  0  0  0  0  0  0  0  0  0  0  0
   21.1561   -4.0355    0.0000 C   0  0  0  0  0  0  0  0  0  0  0  0
   20.2879   -3.5394    0.0000 C   0  0  0  0  0  0  0  0  0  0  0  0
   19.4243   -4.0434    0.0000 C   0  0  0  0  0  0  0  0  0  0  0  0
   19.4288   -5.0431    0.0000 C   0  0  0  0  0  0  0  0  0  0  0  0
   20.2834   -2.5395    0.0000 O   0  0  0  0  0  0  0  0  0  0  0  0
   23.0431   -7.5314    0.0000 H   0  0  0  0  0  0  0  0  0  0  0  0
   22.0432   -7.5314    0.0000 H   0  0  0  0  0  0  0  0  0  0  0  0
  1  2  1  0     0  0
  2  3  1  0     0  0
  3  4  2  0     0  0
  4  5  1  0     0  0
  5  1  2  0     0  0
  4  6  1  0     0  0
  6  7  1  0     0  0
  7  8  1  0     0  0
  8  9  2  0     0  0
  9 10  1  0     0  0
 10 11  1  0     0  0
 11 12  1  0     0  0
 12 13  1  0     0  0
 13  8  1  0     0  0
  9 14  1  0     0  0
 14 15  2  0     0  0
 14 16  1  0     0  0
 10 17  1  0     0  0
 11 18  1  0     0  0
 18 17  1  0     0  0
 17 19  2  0     0  0
 18 20  1  1     0  0
 20 21  1  0     0  0
 21 22  1  0     0  0
 21 23  2  0     0  0
 22 24  1  6     0  0
 22 25  1  0     0  0
 25 26  1  0     0  0
 26 27  2  0     0  0
 27 28  1  0     0  0
 28 29  2  0     0  0
 29 30  1  0     0  0
 30 25  2  0     0  0
 28 31  1  0     0  0
 11 32  1  6     0  0
 18 33  1  6     0  0
M  END
> <ID>
CHEBI:131730

> <NAME>
cefatrizine

> <DEFINITION>
A cephalosporin compound having (1H-1,2,3-triazol-4-ylsulfanyl)methyl and [(2R)-2-amino-2-(4-hydroxyphenyl)]acetamido side-groups. An antibacterial drug first prepared in the 1970s, it has more recently been found to be an inhibitor of eukaryotic elongation factor-2 kinase (eEF2K), which is known to regulate apoptosis, autophagy and ER stress in many types of human cancers.

> <STAR>
3

> <SYNONYM>
SKF 60771; BLS 640; BL-S640; BL-S 640; antibiotic BL-S 640; (7R)-7-(alpha-D-4-hydroxyphenylglycylamino)-3-(1H-1,2,3-triazol-4-ylthiomethyl)-3-cephem-4-carboxylic acid

> <IUPAC_NAME>
(6R,7R)-7-{[(2R)-2-amino-2-(4-hydroxyphenyl)acetyl]amino}-8-oxo-3-[(1H-1,2,3-triazol-4-ylsulfanyl)methyl]-5-thia-1-azabicyclo[4.2.0]oct-2-ene-2-carboxylic acid

> <INN>
cefatrizinum; cefatrizine; cefatrizine; cefatrizina

> <FORMULA>
C18H18N6O5S2

> <MASS>
462.506

> <MONOISOTOPIC_MASS>
462.07801

> <CHARGE>
0

> <SMILES>
N=1NC=C(N1)SCC2=C(N3[C@](SC2)([C@@](C3=O)(NC([C@H](N)C=4C=CC(=CC4)O)=O)[H])[H])C(=O)O

> <INCHI>
InChI=1S/C18H18N6O5S2/c19-12(8-1-3-10(25)4-2-8)15(26)21-13-16(27)24-14(18(28)29)9(7-31-17(13)24)6-30-11-5-20-23-22-11/h1-5,12-13,17,25H,6-7,19H2,(H,21,26)(H,28,29)(H,20,22,23)/t12-,13-,17-/m1/s1

> <INCHIKEY>
UOCJDOLVGGIYIQ-PBFPGSCMSA-N

> <CAS_REGISTRY_NUMBER>
51627-14-6

> <REAXYS_REGISTRY_NUMBER>
8172545

> <CHEMIDPLUS>
51627-14-6

> <KEGG_DRUG_ACCESSION>
D02406

> <WIKIPEDIA_ACCESSION>
Cefatrizine

> <PUBMED_CITATION>
1137381; 2329468; 23894823; 239917; 26776155; 29017833; 3915469; 6660858; 813573

$$$$

Ketcher 03121816282D 1   1.00000     0.00000     0

 35 38  0     1  0            999 V2000
   18.5773  -75.4268    0.0000 S   0  0  0  0  0  0  0  0  0  0  0  0
   17.7111  -75.9269    0.0000 C   0  0  0  0  0  0  0  0  0  0  0  0
   16.8449  -75.4268    0.0000 C   0  0  0  0  0  0  0  0  0  0  0  0
   15.9784  -75.9269    0.0000 C   0  0  0  0  0  0  0  0  0  0  0  0
   15.1122  -75.4268    0.0000 N   0  0  0  0  0  0  0  0  0  0  0  0
   15.1122  -74.4265    0.0000 C   0  0  0  0  0  0  0  0  0  0  0  0
   15.9784  -73.9264    0.0000 S   0  0  0  0  0  0  0  0  0  0  0  0
   16.8449  -74.4265    0.0000 C   0  0  0  0  0  0  0  0  0  0  0  0
   15.9784  -76.9273    0.0000 C   0  0  0  0  0  0  0  0  0  0  0  0
   15.1122  -77.4273    0.0000 O   0  0  0  0  0  0  0  0  0  0  0  0
   16.8449  -77.4273    0.0000 O   0  0  0  0  0  0  0  0  0  0  0  0
   14.1120  -75.4268    0.0000 C   0  0  0  0  0  0  0  0  0  0  0  0
   14.1120  -74.4265    0.0000 C   0  0  0  0  0  0  0  0  0  0  0  0
   13.4047  -76.1341    0.0000 O   0  0  0  0  0  0  0  0  0  0  0  0
   13.2464  -73.9241    0.0000 N   0  0  0  0  0  0  0  0  0  0  0  0
   14.1144  -73.4313    0.0000 H   0  0  0  0  0  0  0  0  0  0  0  0
   15.1147  -73.4313    0.0000 H   0  0  0  0  0  0  0  0  0  0  0  0
   19.4435  -75.9268    0.0000 C   0  0  0  0  0  0  0  0  0  0  0  0
   20.3573  -75.5199    0.0000 S   0  0  0  0  0  0  0  0  0  0  0  0
   19.5482  -76.9215    0.0000 N   0  0  0  0  0  0  0  0  0  0  0  0
   21.0266  -76.2631    0.0000 C   0  0  0  0  0  0  0  0  0  0  0  0
   20.5267  -77.1294    0.0000 N   0  0  0  0  0  0  0  0  0  0  0  0
   22.0213  -76.1584    0.0000 C   0  0  0  0  0  0  0  0  0  0  0  0
   12.3794  -74.4228    0.0000 C   0  0  0  0  0  0  0  0  0  0  0  0
   11.5139  -73.9212    0.0000 C   0  0  0  0  0  0  0  0  0  0  0  0
   12.3777  -75.4230    0.0000 O   0  0  0  0  0  0  0  0  0  0  0  0
   10.6469  -74.4199    0.0000 N   0  0  0  0  0  0  0  0  0  0  0  0
   10.6452  -75.4201    0.0000 C   0  0  0  0  0  0  0  0  0  0  0  0
    9.7814  -73.9184    0.0000 C   0  0  0  0  0  0  0  0  0  0  0  0
    9.7781  -75.9188    0.0000 C   0  0  0  0  0  0  0  0  0  0  0  0
    8.9144  -74.4171    0.0000 C   0  0  0  0  0  0  0  0  0  0  0  0
    8.9128  -75.4173    0.0000 C   0  0  0  0  0  0  0  0  0  0  0  0
    8.0457  -75.9159    0.0000 O   0  0  0  0  0  0  0  0  0  0  0  0
    8.0490  -73.9155    0.0000 Cl  0  0  0  0  0  0  0  0  0  0  0  0
    9.7764  -76.9190    0.0000 Cl  0  0  0  0  0  0  0  0  0  0  0  0
  1  2  1  0     0  0
  2  3  1  0     0  0
  3  4  2  0     0  0
  4  5  1  0     0  0
  5  6  1  0     0  0
  6  7  1  0     0  0
  7  8  1  0     0  0
  8  3  1  0     0  0
  4  9  1  0     0  0
  9 10  2  0     0  0
  9 11  1  0     0  0
  5 12  1  0     0  0
  6 13  1  0     0  0
 13 12  1  0     0  0
 12 14  2  0     0  0
 13 15  1  1     0  0
 13 16  1  6     0  0
  6 17  1  6     0  0
 19 18  1  0     0  0
 20 18  2  0     0  0
 21 19  1  0     0  0
 22 20  1  0     0  0
 22 21  2  0     0  0
  1 18  1  0     0  0
 21 23  1  0     0  0
 15 24  1  0     0  0
 24 25  1  0     0  0
 24 26  2  0     0  0
 28 27  1  0     0  0
 29 27  1  0     0  0
 30 28  2  0     0  0
 31 29  2  0     0  0
 32 30  1  0     0  0
 32 31  1  0     0  0
 25 27  1  0     0  0
 32 33  2  0     0  0
 31 34  1  0     0  0
 30 35  1  0     0  0
M  END
> <ID>
CHEBI:131731

> <NAME>
cefazedone

> <DEFINITION>
A first-generation cephalosporin antibiotic having [(5-methyl-1,3,4-thiadiazol-2-yl)sulfanyl]methyl and [(3,5-dichloro-4-oxopyridin-1(4H)-yl)acetamido side-groups located at positions 3 and 7 respectively.

> <STAR>
3

> <SYNONYM>
EMD-30087; (6R,7R)-7-[2-(3,5-dichloro-4-oxopyridin-1(4H)-yl)acetamido]-3-{[(5-methyl-1,3,4-thiadiazol-2-yl)sulfanyl]methyl}-8-oxo-5-thia-1-azabicyclo[4.2.0]oct-2-ene-2-carboxylic acid

> <IUPAC_NAME>
7-{[3,5-dichloro-4-oxopyridin-1(4H)-yl]acetamido}-3-{[(5-methyl-1,3,4-thiadiazol-2-yl)sulfanyl]methyl}-3,4-didehydrocepham-4-carboxylic acid

> <INN>
cefazedonum; cefazedone; cefazedone; cefazedona

> <BRAND_NAME>
Refosporene; Refosporen

> <FORMULA>
C18H15Cl2N5O5S3

> <MASS>
548.447

> <MONOISOTOPIC_MASS>
546.96124

> <CHARGE>
0

> <SMILES>
S(CC1=C(N2[C@](SC1)([C@@](C2=O)(NC(CN3C=C(C(C(=C3)Cl)=O)Cl)=O)[H])[H])C(=O)O)C=4SC(=NN4)C

> <INCHI>
InChI=1S/C18H15Cl2N5O5S3/c1-7-22-23-18(33-7)32-6-8-5-31-16-12(15(28)25(16)13(8)17(29)30)21-11(26)4-24-2-9(19)14(27)10(20)3-24/h2-3,12,16H,4-6H2,1H3,(H,21,26)(H,29,30)/t12-,16-/m1/s1

> <INCHIKEY>
VTLCNEGVSVJLDN-MLGOLLRUSA-N

> <CAS_REGISTRY_NUMBER>
56187-47-4

> <REAXYS_REGISTRY_NUMBER>
5399221

> <CHEMIDPLUS>
56187-47-4

> <KEGG_DRUG_ACCESSION>
D07237

> <WIKIPEDIA_ACCESSION>
Cefazedone

> <PUBMED_CITATION>
114187; 25464101; 25947397; 29017833; 385008; 385009; 385010; 39575; 546431; 582713; 582714; 582715; 582716; 582719; 582720; 582721; 582722; 582725; 582726

$$$$

Ketcher 04141614132D 1   1.00000     0.00000     0

 30 32  0     1  0            999 V2000
   20.3272   -9.7744    0.0000 C   0  0  0  0  0  0  0  0  0  0  0  0
   19.4655   -9.2660    0.0000 C   0  0  0  0  0  0  0  0  0  0  0  0
   18.5943   -9.7579    0.0000 C   0  0  0  0  0  0  0  0  0  0  0  0
   18.5849  -10.7584    0.0000 C   0  0  0  0  0  0  0  0  0  0  0  0
   19.4464  -11.2669    0.0000 C   0  0  0  0  0  0  0  0  0  0  0  0
   20.3177  -10.7749    0.0000 C   0  0  0  0  0  0  0  0  0  0  0  0
   19.4369  -12.2673    0.0000 C   0  0  0  0  0  0  0  0  0  0  0  0
   20.2986  -12.7759    0.0000 C   0  0  0  0  0  0  0  0  0  0  0  0
   21.1698  -12.2840    0.0000 N   0  0  0  0  0  0  0  0  0  0  0  0
   20.2890  -13.7764    0.0000 O   0  0  0  0  0  0  0  0  0  0  0  0
   22.0325  -12.7932    0.0000 C   0  0  0  0  0  0  0  0  0  0  0  0
   23.0331  -12.7931    0.0000 C   0  0  0  0  0  0  0  0  0  0  0  0
   22.0325  -13.7936    0.0000 C   0  0  0  0  0  0  0  0  0  0  0  0
   23.0331  -13.7935    0.0000 N   0  0  0  0  0  0  0  0  0  0  0  0
   21.3251  -14.5010    0.0000 O   0  0  0  0  0  0  0  0  0  0  0  0
   23.9846  -12.4840    0.0000 S   0  0  0  0  0  0  0  0  0  0  0  0
   23.9846  -14.1028    0.0000 C   0  0  0  0  0  0  0  0  0  0  0  0
   24.5726  -13.2933    0.0000 C   0  0  0  0  0  0  0  0  0  0  0  0
   23.9937  -15.1036    0.0000 C   0  0  0  0  0  0  0  0  0  0  0  0
   23.1323  -15.6127    0.0000 O   0  0  0  0  0  0  0  0  0  0  0  0
   24.8651  -15.5951    0.0000 O   0  0  0  0  0  0  0  0  0  0  0  0
   25.4390  -12.7931    0.0000 C   0  0  0  0  0  0  0  0  0  0  0  0
   25.4390  -13.7935    0.0000 C   0  0  0  0  0  0  0  0  0  0  0  0
   23.0302  -11.7968    0.0000 H   0  0  0  0  0  0  0  0  0  0  0  0
   22.0297  -11.7968    0.0000 H   0  0  0  0  0  0  0  0  0  0  0  0
   24.8504  -14.5934    0.0000 H   0  0  0  0  0  0  0  0  0  0  0  0
   19.4733   -8.2690    0.0000 Cl  0  0  0  0  0  0  0  0  0  0  0  0
   18.5613  -12.7522    0.0000 O   0  0  0  0  0  0  0  0  0  0  0  0
   18.5613  -13.7521    0.0000 C   0  0  0  0  0  0  0  0  0  0  0  0
   21.1932   -9.2744    0.0000 Cl  0  0  0  0  0  0  0  0  0  0  0  0
  1  2  1  0     0  0
  2  3  2  0     0  0
  3  4  1  0     0  0
  4  5  2  0     0  0
  5  6  1  0     0  0
  6  1  2  0     0  0
  5  7  1  0     0  0
  7  8  1  0     0  0
  8  9  1  0     0  0
  8 10  2  0     0  0
 11  9  1  0     0  0
 11 12  1  0     0  0
 11 13  1  0     0  0
 13 14  1  0     0  0
 14 12  1  0     0  0
 13 15  2  0     0  0
 12 16  1  0     0  0
 14 17  1  0     0  0
 17 18  1  0     0  0
 16 18  1  0     0  0
 17 19  1  0     0  0
 19 20  1  0     0  0
 19 21  2  0     0  0
 22 18  1  0     0  0
 23 18  1  0     0  0
 12 24  1  6     0  0
 11 25  1  6     0  0
 17 26  1  1     0  0
  2 27  1  0     0  0
  7 28  1  0     0  0
 28 29  1  0     0  0
  1 30  1  0     0  0
M  END
> <ID>
CHEBI:131732

> <NAME>
clometocillin

> <DEFINITION>
A penicillin that is benzylpenicillin in which the phenylacetyl group has been replaced by a (3,4-dichlorophenyl)(methoxy)acetyl group. It is a mixture of epimers at the methoxy-bearing carbon.

> <STAR>
3

> <SYNONYM>
penicillin 356; clomethacillin; clometacillin; 6-(alpha-methoxy-3,4-dichlorophenylacetamido)penicillanic acid; 3,4-dichloro-alpha-methoxybenzylpenicillin

> <IUPAC_NAME>
(2S,5R,6R)-6-[2-(3,4-dichlorophenyl)(methoxy)acetamido]-3,3-dimethyl-7-oxo-4-thia-1-azabicyclo[3.2.0]heptane-2-carboxylic acid

> <INN>
clometocillinum; clometocilline; clometocillin; clometocilina

> <FORMULA>
C17H18Cl2N2O5S

> <MASS>
433.308

> <MONOISOTOPIC_MASS>
432.03135

> <CHARGE>
0

> <SMILES>
C=1(C(=CC=C(C1)C(C(N[C@]2([C@@]3(N(C2=O)[C@](C(S3)(C)C)(C(O)=O)[H])[H])[H])=O)OC)Cl)Cl

> <INCHI>
InChI=1S/C17H18Cl2N2O5S/c1-17(2)12(16(24)25)21-14(23)10(15(21)27-17)20-13(22)11(26-3)7-4-5-8(18)9(19)6-7/h4-6,10-12,15H,1-3H3,(H,20,22)(H,24,25)/t10-,11?,12+,15-/m1/s1

> <INCHIKEY>
JKXQBIZCQJLVOS-GSNLGQFWSA-N

> <CAS_REGISTRY_NUMBER>
1926-49-4

> <REAXYS_REGISTRY_NUMBER>
13779003

> <CHEMIDPLUS>
1926-49-4

> <KEGG_DRUG_ACCESSION>
D07236

> <WIKIPEDIA_ACCESSION>
Clometocillin

> <PUBMED_CITATION>
14128892; 4218940; 9578165

$$$$

Marvin  11300913362D          

 17 18  0  0  0  0            999 V2000
   14.5316   -6.1626    0.0000 C   0  0  0  0  0  0  0  0  0  0  0  0
   14.5316   -6.9876    0.0000 C   0  0  0  0  0  0  0  0  0  0  0  0
   13.8155   -7.4001    0.0000 C   0  0  0  0  0  0  0  0  0  0  0  0
   13.1035   -6.9876    0.0000 C   0  0  0  0  0  0  0  0  0  0  0  0
   13.1035   -6.1626    0.0000 C   0  0  0  0  0  0  0  0  0  0  0  0
   13.8155   -5.7501    0.0000 C   0  0  0  0  0  0  0  0  0  0  0  0
   12.3887   -5.7508    0.0000 S   0  0  0  0  0  0  0  0  0  0  0  0
   11.6746   -6.1637    0.0000 N   0  0  0  0  0  0  0  0  0  0  0  0
   10.9597   -5.7518    0.0000 C   0  0  0  0  0  0  0  0  0  0  0  0
   10.2477   -6.1650    0.0000 N   0  0  0  0  0  0  0  0  0  0  0  0
    9.5330   -5.7531    0.0000 C   0  0  0  0  0  0  0  0  0  0  0  0
    9.5323   -4.9280    0.0000 C   0  0  0  0  0  0  0  0  0  0  0  0
   10.2465   -4.5149    0.0000 C   0  0  0  0  0  0  0  0  0  0  0  0
   10.9613   -4.9269    0.0000 C   0  0  0  0  0  0  0  0  0  0  0  0
   15.2460   -7.4006    0.0000 N   0  0  0  0  0  0  0  0  0  0  0  0
   12.8012   -5.0363    0.0000 O   0  0  0  0  0  0  0  0  0  0  0  0
   11.9762   -5.0363    0.0000 O   0  0  0  0  0  0  0  0  0  0  0  0
  3  4  1  0  0  0  0
  4  5  2  0  0  0  0
  8  9  1  0  0  0  0
  5  6  1  0  0  0  0
  6  1  2  0  0  0  0
  5  7  1  0  0  0  0
  1  2  1  0  0  0  0
  9 10  2  0  0  0  0
 10 11  1  0  0  0  0
 11 12  2  0  0  0  0
 12 13  1  0  0  0  0
 13 14  2  0  0  0  0
 14  9  1  0  0  0  0
  7  8  1  0  0  0  0
  2  3  2  0  0  0  0
  2 15  1  0  0  0  0
 17  7  2  0  0  0  0
  7 16  2  0  0  0  0
M  END
> <ID>
CHEBI:132842

> <NAME>
sulfapyridine

> <DEFINITION>
A sulfonamide consisting of pyridine with a 4-aminobenzenesulfonamido group at the 2-position.

> <STAR>
3

> <SYNONYM>
Sulphapyridine; Solfapiridina; N(1)-Pyridylsulfanilamide; N(1)-2-Pyridylsulfanilamide; N-2-Pyridylsulfanilamide; 4-Amino-N-pyridin-2-yl-benzenesulfonamide; 4-Amino-N,2-pyridinylbenzenesulfonamide; 4-[(2-Pyridylamino)sulfonyl]aniline; 4-(2-Pyridinylsulfonyl)aniline; 2-Sulfapyridine; 2-Sulfanilylaminopyridine; 2-Sulfanilamidopyridine; 2-Sulfanilamidopyridin; 2-(p-Aminobenzenesulphonamido)pyridine

> <IUPAC_NAME>
4-amino-N-(pyridin-2-yl)benzenesulfonamide

> <INN>
sulfapyridinum; sulfapyridine; sulfapiridina

> <FORMULA>
C11H11N3O2S

> <MASS>
249.28900

> <MONOISOTOPIC_MASS>
249.05720

> <CHARGE>
0

> <SMILES>
Nc1ccc(cc1)S(=O)(=O)Nc1ccccn1

> <INCHI>
InChI=1S/C11H11N3O2S/c12-9-4-6-10(7-5-9)17(15,16)14-11-3-1-2-8-13-11/h1-8H,12H2,(H,13,14)

> <INCHIKEY>
GECHUMIMRBOMGK-UHFFFAOYSA-N

> <BEILSTEIN_REGISTRY_NUMBER>
222065

> <CAS_REGISTRY_NUMBER>
144-83-2

> <GMELIN_REGISTRY_NUMBER>
219135

> <REAXYS_REGISTRY_NUMBER>
222065

> <CHEMIDPLUS>
144-83-2

> <DRUGBANK_ACCESSION>
DB00891

> <HMDB_ACCESSION>
HMDB0015028

> <KEGG_DRUG_ACCESSION>
D02434

> <LINCS_ACCESSION>
LSM-5531

> <WIKIPEDIA_ACCESSION>
Sulfapyridine

> <PUBMED_CITATION>
11431418; 17964793; 6136612; 6993682; 7021831

$$$$

Ketcher 02101715272D 1   1.00000     0.00000     0

 13 13  0     1  0            999 V2000
   16.8330  -22.7829    0.0000 C   0  0  0  0  0  0  0  0  0  0  0  0
   18.5650  -23.7829    0.0000 C   0  0  0  0  0  0  0  0  0  0  0  0
   18.5650  -22.7829    0.0000 C   0  0  0  0  0  0  0  0  0  0  0  0
   16.8330  -23.7829    0.0000 C   0  0  0  0  0  0  0  0  0  0  0  0
   17.6990  -22.2829    0.0000 C   0  0  0  0  0  0  0  0  0  0  0  0
   17.6990  -21.2830    0.0000 C   0  0  0  0  0  0  0  0  0  0  0  0
   16.8330  -25.7829    0.0000 C   0  0  0  0  0  0  0  0  0  0  0  0
   17.6990  -25.2829    0.0000 C   0  0  0  0  0  0  0  0  0  0  0  0
   18.5650  -25.7829    0.0000 C   0  0  0  0  0  0  0  0  0  0  0  0
   17.6990  -24.2829    0.0000 C   0  0  0  0  0  0  0  0  0  0  0  0
   16.8330  -24.7829    0.0000 H   0  0  0  0  0  0  0  0  0  0  0  0
   15.9670  -22.2829    0.0000 O   0  0  0  0  0  0  0  0  0  0  0  0
   15.1009  -22.7829    0.0000 O   0  0  0  0  0  0  0  0  0  0  0  0
 10  4  1  0     0  0
  1  4  1  0     0  0
  2 10  1  0     0  0
  5  1  1  0     0  0
  3  2  1  0     0  0
  3  5  2  0     0  0
 10  8  1  0     0  0
  5  6  1  0     0  0
  8  7  1  0     0  0
  8  9  2  0     0  0
 10 11  1  1     0  0
  1 12  1  0     0  0
 12 13  1  0     0  0
M  END
> <ID>
CHEBI:134505

> <NAME>
(4R)-limonene 2-hydroperoxide

> <DEFINITION>
(4R)-Limonene hydroperoxide where the hydroperoxy group is located at position 2 of the limonene skeleton; one of the two main allergenic hydroperoxides formed by autoxidation of (4R)-limonene.

> <STAR>
3

> <SYNONYM>
Lim-2-OOH; (4R)-limonene-2-hydroperoxide; (4R)-2-hydroperoxylimonene

> <IUPAC_NAME>
(5S)-2-methyl-5-(prop-1-en-2-yl)cyclohex-2-ene-1-peroxol

> <FORMULA>
C10H16O2

> <MASS>
168.233

> <MONOISOTOPIC_MASS>
168.11503

> <CHARGE>
0

> <SMILES>
C1(C[C@](CC=C1C)(C(C)=C)[H])OO

> <INCHI>
InChI=1S/C10H16O2/c1-7(2)9-5-4-8(3)10(6-9)12-11/h4,9-11H,1,5-6H2,2-3H3/t9-,10?/m0/s1

> <INCHIKEY>
VAVIEVIKILAXDG-RGURZIINSA-N

> <PUBMED_CITATION>
27896835

$$$$

Ketcher 02141712092D 1   1.00000     0.00000     0

 13 12  0     0  0            999 V2000
   10.0226  -54.1288    0.0000 C   0  0  0  0  0  0  0  0  0  0  0  0
   10.0211  -54.8784    0.0000 C   0  0  0  0  0  0  0  0  0  0  0  0
    9.1319  -53.6145    0.0000 C   0  0  0  0  0  0  0  0  0  0  0  0
    9.1319  -55.6714    0.0000 C   0  0  0  0  0  0  0  0  0  0  0  0
    8.2413  -54.1288    0.0000 C   0  0  0  0  0  0  0  0  0  0  0  0
    8.2413  -55.1572    0.0000 C   0  0  0  0  0  0  0  0  0  0  0  0
    8.5866  -52.5861    0.0000 C   0  0  0  0  0  0  0  0  0  0  0  0
    9.6398  -52.6232    0.0000 O   0  0  0  0  0  0  0  0  0  0  0  0
    9.1319  -56.6998    0.0000 C   0  0  0  0  0  0  0  0  0  0  0  0
    8.2413  -57.2140    0.0000 C   0  0  0  0  0  0  0  0  0  0  0  0
   10.0225  -57.2140    0.0000 C   0  0  0  0  0  0  0  0  0  0  0  0
   10.0736  -55.6838    0.0000 O   0  0  0  0  0  0  0  0  0  0  0  0
   10.8295  -56.0307    0.0000 O   0  0  0  0  0  0  0  0  0  0  0  0
  2  1  2  0     0  0
  3  1  1  0     0  0
  5  3  1  0     0  0
  6  4  2  0     0  0
  6  5  1  0     0  0
  3  7  1  0     0  0
  3  8  1  0     0  0
  4  9  1  0     0  0
  9 10  1  0     0  0
  9 11  1  0     0  0
  4 12  1  0     0  0
 12 13  1  0     0  0
M  END
> <ID>
CHEBI:134524

> <NAME>
linalool 6-hydroperoxide

> <DEFINITION>
Linalool hydroperoxide where the hydroperoxy group is located at position 6 of the linalool skeleton; one of the two main allergenic hydroperoxides formed by autoxidation of linalool.

> <STAR>
3

> <SYNONYM>
linalool-6-OOH; Lin-6-OOH; 6-hydroperoxylinalool

> <IUPAC_NAME>
(5Z)-6-hydroperoxy-3,7-dimethylocta-1,5-dien-3-ol

> <FORMULA>
C10H18O3

> <MASS>
186.249

> <MONOISOTOPIC_MASS>
186.12559

> <CHARGE>
0

> <SMILES>
C(=C)C(C\C=C(\C(C)C)/OO)(C)O

> <INCHI>
InChI=1S/C10H18O3/c1-5-10(4,11)7-6-9(13-12)8(2)3/h5-6,8,11-12H,1,7H2,2-4H3/b9-6-

> <INCHIKEY>
UVKPTCRFZNDVBI-TWGQIWQCSA-N

> <PUBMED_CITATION>
27896835

$$$$

Ketcher 02141712162D 1   1.00000     0.00000     0

 13 12  0     0  0            999 V2000
   13.1880  -45.6248    0.0000 C   0  0  0  0  0  0  0  0  0  0  0  0
   13.1880  -46.6173    0.0000 C   0  0  0  0  0  0  0  0  0  0  0  0
   12.3284  -45.1286    0.0000 C   0  0  0  0  0  0  0  0  0  0  0  0
   12.3284  -47.1136    0.0000 C   0  0  0  0  0  0  0  0  0  0  0  0
   11.4689  -45.6248    0.0000 C   0  0  0  0  0  0  0  0  0  0  0  0
   11.4689  -46.6173    0.0000 C   0  0  0  0  0  0  0  0  0  0  0  0
   11.8022  -44.1361    0.0000 C   0  0  0  0  0  0  0  0  0  0  0  0
   12.8186  -44.1720    0.0000 O   0  0  0  0  0  0  0  0  0  0  0  0
   12.3284  -48.1061    0.0000 C   0  0  0  0  0  0  0  0  0  0  0  0
   11.4688  -48.6023    0.0000 C   0  0  0  0  0  0  0  0  0  0  0  0
   13.1879  -48.6024    0.0000 C   0  0  0  0  0  0  0  0  0  0  0  0
   13.1879  -47.6099    0.0000 O   0  0  0  0  0  0  0  0  0  0  0  0
   14.0145  -47.8789    0.0000 O   0  0  0  0  0  0  0  0  0  0  0  0
  2  1  2  0     0  0
  3  1  1  0     0  0
  5  3  1  0     0  0
  6  4  2  0     0  0
  6  5  1  0     0  0
  3  7  1  0     0  0
  3  8  1  0     0  0
  4  9  1  0     0  0
  9 10  1  0     0  0
  9 11  1  0     0  0
  9 12  1  0     0  0
 12 13  1  0     0  0
M  END
> <ID>
CHEBI:134525

> <NAME>
linalool 7-hydroperoxide

> <DEFINITION>
Linalool hydroperoxide where the hydroperoxy group is located at position 7 of the linalool skeleton; one of the two main allergenic hydroperoxides formed by autoxidation of linalool.

> <STAR>
3

> <SYNONYM>
linalool-7-OOH; Lin-7-OOH; 7-hydroperoxylinalool

> <IUPAC_NAME>
(5E)-7-hydroperoxy-3,7-dimethylocta-1,5-dien-3-ol

> <FORMULA>
C10H18O3

> <MASS>
186.249

> <MONOISOTOPIC_MASS>
186.12559

> <CHARGE>
0

> <SMILES>
C(=C)C(C\C=C\C(C)(C)OO)(C)O

> <INCHI>
InChI=1S/C10H18O3/c1-5-10(4,11)8-6-7-9(2,3)13-12/h5-7,11-12H,1,8H2,2-4H3/b7-6+

> <INCHIKEY>
KPPNFQDHKXOGMD-VOTSOKGWSA-N

> <REAXYS_REGISTRY_NUMBER>
10154154

> <PUBMED_CITATION>
27896835

$$$$
cefathiamidine
  CDK     0223171731
null
 32 33  0  0  0  0  0  0  0  0999 V2000
   -1.2670    1.2670    0.0000 C   0  0  0  0  0  0  0  0  0  0  0  0
   -1.9814    0.8545    0.0000 N   0  0  0  0  0  0  0  0  0  0  0  0
   -1.9814    0.0295    0.0000 C   0  0  2  0  0  0  0  0  0  0  0  0
   -1.2670   -0.3831    0.0000 S   0  0  0  0  0  0  0  0  0  0  0  0
   -0.5525    0.0295    0.0000 C   0  0  0  0  0  0  0  0  0  0  0  0
   -0.5525    0.8545    0.0000 C   0  0  0  0  0  0  0  0  0  0  0  0
   -2.8064    0.8545    0.0000 C   0  0  0  0  0  0  0  0  0  0  0  0
   -2.8064    0.0295    0.0000 C   0  0  1  0  0  0  0  0  0  0  0  0
   -1.2670    2.0920    0.0000 C   0  0  0  0  0  0  0  0  0  0  0  0
   -0.5525    2.5045    0.0000 O   0  0  0  0  0  0  0  0  0  0  0  0
   -1.9814    2.5045    0.0000 O   0  0  0  0  0  0  0  0  0  0  0  0
    0.1620    1.2670    0.0000 C   0  0  0  0  0  0  0  0  0  0  0  0
    0.8764    0.8545    0.0000 O   0  0  0  0  0  0  0  0  0  0  0  0
    1.5909    1.2670    0.0000 C   0  0  0  0  0  0  0  0  0  0  0  0
    2.3054    0.8545    0.0000 C   0  0  0  0  0  0  0  0  0  0  0  0
    1.5909    2.0920    0.0000 O   0  0  0  0  0  0  0  0  0  0  0  0
   -3.3898    1.4378    0.0000 O   0  0  0  0  0  0  0  0  0  0  0  0
   -3.5209   -0.3830    0.0000 N   0  0  0  0  0  0  0  0  0  0  0  0
   -4.2354    0.0295    0.0000 C   0  0  0  0  0  0  0  0  0  0  0  0
   -4.9498   -0.3830    0.0000 C   0  0  0  0  0  0  0  0  0  0  0  0
   -4.2354    0.8545    0.0000 O   0  0  0  0  0  0  0  0  0  0  0  0
   -5.6643    0.0295    0.0000 S   0  0  0  0  0  0  0  0  0  0  0  0
   -6.3788   -0.3830    0.0000 C   0  0  0  0  0  0  0  0  0  0  0  0
   -7.0933    0.0295    0.0000 N   0  0  0  0  0  0  0  0  0  0  0  0
   -6.3788   -1.2080    0.0000 N   0  0  0  0  0  0  0  0  0  0  0  0
   -5.6643   -1.6205    0.0000 C   0  0  0  0  0  0  0  0  0  0  0  0
   -5.6643   -2.4455    0.0000 C   0  0  0  0  0  0  0  0  0  0  0  0
   -4.9498   -1.2080    0.0000 C   0  0  0  0  0  0  0  0  0  0  0  0
   -7.8077   -0.3830    0.0000 C   0  0  0  0  0  0  0  0  0  0  0  0
   -8.5222    0.0295    0.0000 C   0  0  0  0  0  0  0  0  0  0  0  0
   -7.8077   -1.2080    0.0000 C   0  0  0  0  0  0  0  0  0  0  0  0
   -1.9814   -0.7955    0.0000 H   0  0  0  0  0  0  0  0  0  0  0  0
  1  2  1  0  0  0  0 
  1  6  2  0  0  0  0 
  2  3  1  0  0  0  0 
  3  4  1  0  0  0  0 
  4  5  1  0  0  0  0 
  5  6  1  0  0  0  0 
  7  8  1  0  0  0  0 
  2  7  1  0  0  0  0 
  8  3  1  0  0  0  0 
  1  9  1  0  0  0  0 
  9 10  2  0  0  0  0 
  9 11  1  0  0  0  0 
  6 12  1  0  0  0  0 
 12 13  1  0  0  0  0 
 13 14  1  0  0  0  0 
 14 15  1  0  0  0  0 
 14 16  2  0  0  0  0 
  7 17  2  0  0  0  0 
  8 18  1  6  0  0  0 
 18 19  1  0  0  0  0 
 19 20  1  0  0  0  0 
 19 21  2  0  0  0  0 
 20 22  1  0  0  0  0 
 22 23  1  0  0  0  0 
 23 24  2  0  0  0  0 
 23 25  1  0  0  0  0 
 25 26  1  0  0  0  0 
 26 27  1  0  0  0  0 
 26 28  1  0  0  0  0 
 24 29  1  0  0  0  0 
 29 30  1  0  0  0  0 
 29 31  1  0  0  0  0 
  3 32  1  1  0  0  0 
M  END
> <ID>
CHEBI:134698

> <NAME>
cefathiamidine

> <STAR>
2

> <FORMULA>
C19H28N4O6S2

> <MASS>
472.582

> <MONOISOTOPIC_MASS>
472.14503

> <CHARGE>
0

> <SMILES>
C=1(N2[C@](SCC1COC(C)=O)([C@@H](C2=O)NC(CS/C(=N/C(C)C)/NC(C)C)=O)[H])C(=O)O

> <INCHI>
InChI=1S/C19H28N4O6S2/c1-9(2)20-19(21-10(3)4)31-8-13(25)22-14-16(26)23-15(18(27)28)12(6-29-11(5)24)7-30-17(14)23/h9-10,14,17H,6-8H2,1-5H3,(H,20,21)(H,22,25)(H,27,28)/t14-,17-/m1/s1

> <INCHIKEY>
JYXACOFERDBGGQ-RHSMWYFYSA-N

> <CAS_REGISTRY_NUMBER>
33075-00-2

$$$$

Ketcher 03121812152D 1   1.00000     0.00000     0

 46 49  0     1  0            999 V2000
   15.4295  -28.9236    0.0000 C   0  0  0  0  0  0  0  0  0  0  0  0
   14.5634  -28.4236    0.0000 N   0  0  0  0  0  0  0  0  0  0  0  0
   14.5634  -27.4235    0.0000 C   0  0  0  0  0  0  0  0  0  0  0  0
   15.4295  -26.9235    0.0000 S   0  0  0  0  0  0  0  0  0  0  0  0
   16.2954  -27.4235    0.0000 C   0  0  0  0  0  0  0  0  0  0  0  0
   16.2954  -28.4236    0.0000 C   0  0  0  0  0  0  0  0  0  0  0  0
   13.5634  -28.4236    0.0000 C   0  0  0  0  0  0  0  0  0  0  0  0
   13.5634  -27.4235    0.0000 C   0  0  0  0  0  0  0  0  0  0  0  0
   15.4295  -29.9236    0.0000 C   0  0  0  0  0  0  0  0  0  0  0  0
   16.2954  -30.4236    0.0000 O   0  0  0  0  0  0  0  0  0  0  0  0
   14.5634  -30.4236    0.0000 O   0  0  0  0  0  0  0  0  0  0  0  0
   17.1615  -28.9236    0.0000 C   0  0  0  0  0  0  0  0  0  0  0  0
   18.0275  -28.4236    0.0000 N   0  0  0  0  0  0  0  0  0  0  0  0
   18.1320  -27.4290    0.0000 N   0  0  0  0  0  0  0  0  0  0  0  0
   19.1102  -27.2211    0.0000 C   0  0  0  0  0  0  0  0  0  0  0  0
   19.6102  -28.0872    0.0000 C   0  0  0  0  0  0  0  0  0  0  0  0
   18.9412  -28.8304    0.0000 C   0  0  0  0  0  0  0  0  0  0  0  0
   17.3889  -26.7599    0.0000 C   0  0  0  0  0  0  0  0  0  0  0  0
   19.5169  -26.3076    0.0000 N   0  0  0  0  0  0  0  0  0  0  0  0
   20.6047  -28.1917    0.0000 N   0  0  0  0  0  0  0  0  0  0  0  0
   21.0115  -29.1053    0.0000 C   0  0  0  0  0  0  0  0  0  0  0  0
   22.0060  -29.2098    0.0000 N   0  0  0  0  0  0  0  0  0  0  0  0
   20.4237  -29.9142    0.0000 O   0  0  0  0  0  0  0  0  0  0  0  0
   22.4128  -30.1233    0.0000 C   0  0  0  0  0  0  0  0  0  0  0  0
   23.4072  -30.2278    0.0000 C   0  0  0  0  0  0  0  0  0  0  0  0
   23.8140  -31.1414    0.0000 N   0  0  0  0  0  0  0  0  0  0  0  0
   12.8563  -29.1307    0.0000 O   0  0  0  0  0  0  0  0  0  0  0  0
   12.5634  -27.4235    0.0000 N   0  0  0  0  0  0  0  0  0  0  0  0
   14.5634  -26.4236    0.0000 H   0  0  0  0  0  0  0  0  0  0  0  0
   11.6974  -26.9235    0.0000 C   0  0  0  0  0  0  0  0  0  0  0  0
   10.8314  -27.4235    0.0000 C   0  0  0  0  0  0  0  0  0  0  0  0
   11.6974  -25.9236    0.0000 O   0  0  0  0  0  0  0  0  0  0  0  0
    9.9654  -26.9235    0.0000 C   0  0  0  0  0  0  0  0  0  0  0  0
   10.8314  -28.4236    0.0000 N   0  0  0  0  0  0  0  0  0  0  0  0
   11.6974  -28.9236    0.0000 O   0  0  0  0  0  0  0  0  0  0  0  0
   11.6974  -29.9236    0.0000 C   0  0  0  0  0  0  0  0  0  0  0  0
   12.5634  -30.4236    0.0000 C   0  0  0  0  0  0  0  0  0  0  0  0
   12.5634  -31.4236    0.0000 O   0  0  0  0  0  0  0  0  0  0  0  0
   13.4295  -29.9236    0.0000 O   0  0  0  0  0  0  0  0  0  0  0  0
   11.1974  -30.7897    0.0000 C   0  0  0  0  0  0  0  0  0  0  0  0
   10.7316  -29.6647    0.0000 C   0  0  0  0  0  0  0  0  0  0  0  0
    9.0517  -27.3304    0.0000 N   0  0  0  0  0  0  0  0  0  0  0  0
    8.3827  -26.5872    0.0000 S   0  0  0  0  0  0  0  0  0  0  0  0
    8.8827  -25.7212    0.0000 C   0  0  0  0  0  0  0  0  0  0  0  0
    9.8607  -25.9291    0.0000 N   0  0  0  0  0  0  0  0  0  0  0  0
    8.4760  -24.8077    0.0000 N   0  0  0  0  0  0  0  0  0  0  0  0
  1  2  1  0     0  0
  1  6  2  0     0  0
  2  3  1  0     0  0
  3  4  1  0     0  0
  4  5  1  0     0  0
  5  6  1  0     0  0
  7  8  1  0     0  0
  2  7  1  0     0  0
  8  3  1  0     0  0
  1  9  1  0     0  0
  9 10  1  0     0  0
  9 11  2  0     0  0
  6 12  1  0     0  0
 12 13  1  0     0  0
 14 15  1  0     0  0
 15 16  2  0     0  0
 16 17  1  0     0  0
 13 14  1  0     0  0
 13 17  2  0     0  0
 14 18  1  0     0  0
 15 19  1  0     0  0
 16 20  1  0     0  0
 20 21  1  0     0  0
 21 22  1  0     0  0
 21 23  2  0     0  0
 22 24  1  0     0  0
 24 25  1  0     0  0
 25 26  1  0     0  0
  7 27  2  0     0  0
  8 28  1  1     0  0
  3 29  1  6     0  0
 28 30  1  0     0  0
 30 31  1  0     0  0
 30 32  2  0     0  0
 31 33  1  0     0  0
 31 34  2  0     0  0
 34 35  1  0     0  0
 35 36  1  0     0  0
 36 37  1  0     0  0
 37 38  2  0     0  0
 37 39  1  0     0  0
 36 40  1  0     0  0
 36 41  1  0     0  0
 42 43  1  0     0  0
 43 44  1  0     0  0
 44 45  2  0     0  0
 33 42  2  0     0  0
 33 45  1  0     0  0
 44 46  1  0     0  0
M  CHG  2  10  -1  13   1
M  END
> <ID>
CHEBI:134719

> <NAME>
ceftolozane

> <DEFINITION>
A fifth-generation cephalosporin antibiotic having (5-amino-4-{[(2-aminoethyl)carbamoyl]amino}-1-methyl-1H-pyrazol-2-ium-2-yl)methyl and [(2Z)-2-(5-amino-1,2,4-thiadiazol-3-yl)-2-{[(2-carboxypropan-2-yl)oxy]imino}acetyl]amino side groups located at positions 3 and 7 respectively; developed for the treatment of infections with gram-negative bacteria that have become resistant to conventional antibiotics.

> <STAR>
3

> <SYNONYM>
CXA-101; (6R,7R)-3-[(5-amino-4-{[(2-aminoethyl)carbamoyl]amino}-1-methyl-1H-pyrazol-2-ium-2-yl)methyl]-7-{[(2Z)-2-(5-amino-1,2,4-thiadiazol-3-yl)-2-{[(2-carboxypropan-2-yl)oxy]imino}acetyl]amino}-8-oxo-5-thia-1-azabicyclo[4.2.0]oct-2-ene-2-carboxylate

> <IUPAC_NAME>
7-{[(2Z)-2-(5-amino-1,2,4-thiadiazol-3-yl)-2-{[(2-carboxypropan-2-yl)oxy]imino}acetyl]amino}-3-[ (5-amino-4-{[(2-aminoethyl)carbamoyl]amino}-1-methyl-1H-pyrazol-2-ium-2-yl)methyl]-3,4-didehydrocepham-4-carboxylate

> <INN>
ceftolozanum; ceftolozano; ceftolozane; ceftolozane

> <FORMULA>
C23H30N12O8S2

> <MASS>
666.693

> <MONOISOTOPIC_MASS>
666.17510

> <CHARGE>
0

> <SMILES>
C=1(N2[C@](SCC1C[N+]=3N(C(=C(C3)NC(NCCN)=O)N)C)([C@@H](C2=O)NC(/C(/C4=NSC(=N4)N)=N\OC(C(=O)O)(C)C)=O)[H])C([O-])=O

> <INCHI>
InChI=1S/C23H30N12O8S2/c1-23(2,20(40)41)43-31-11(15-30-21(26)45-32-15)16(36)29-12-17(37)35-13(19(38)39)9(8-44-18(12)35)6-34-7-10(14(25)33(34)3)28-22(42)27-5-4-24/h7,12,18,25H,4-6,8,24H2,1-3H3,(H7,26,27,28,29,30,32,36,38,39,40,41,42)/b31-11-/t12-,18-/m1/s1

> <INCHIKEY>
JHFNIHVVXRKLEF-DCZLAGFPSA-N

> <CAS_REGISTRY_NUMBER>
689293-68-3

> <REAXYS_REGISTRY_NUMBER>
24720344

> <CHEMIDPLUS>
689293-68-3

> <WIKIPEDIA_ACCESSION>
Ceftolozane

> <PUBMED_CITATION>
28689923; 28923865; 28980834; 28993338; 29017833; 29167294; 29493397; 29517862; 29521242

$$$$
cefacetrile
  CDK     0223171737
null
 24 25  0  0  0  0  0  0  0  0999 V2000
    0.8803   -1.1484    0.0000 C   0  0  0  0  0  0  0  0  0  0  0  0
    0.1658   -0.7370    0.0000 O   0  0  0  0  0  0  0  0  0  0  0  0
    1.5947   -0.7370    0.0000 O   0  0  0  0  0  0  0  0  0  0  0  0
    0.8803   -1.9734    0.0000 C   0  0  0  0  0  0  0  0  0  0  0  0
    0.1658   -2.3869    0.0000 N   0  0  0  0  0  0  0  0  0  0  0  0
    1.5947   -2.3869    0.0000 C   0  0  0  0  0  0  0  0  0  0  0  0
    0.1658   -3.2119    0.0000 C   0  0  1  0  0  0  0  0  0  0  0  0
   -0.6592   -2.3869    0.0000 C   0  0  0  0  0  0  0  0  0  0  0  0
    2.3091   -1.9734    0.0000 C   0  0  0  0  0  0  0  0  0  0  0  0
    1.5947   -3.2119    0.0000 C   0  0  0  0  0  0  0  0  0  0  0  0
   -0.6592   -3.2119    0.0000 C   0  0  1  0  0  0  0  0  0  0  0  0
    0.8803   -3.6234    0.0000 S   0  0  0  0  0  0  0  0  0  0  0  0
   -1.2426   -1.8035    0.0000 O   0  0  0  0  0  0  0  0  0  0  0  0
    3.0236   -2.3869    0.0000 O   0  0  0  0  0  0  0  0  0  0  0  0
   -1.3736   -3.6234    0.0000 N   0  0  0  0  0  0  0  0  0  0  0  0
    3.7380   -1.9734    0.0000 C   0  0  0  0  0  0  0  0  0  0  0  0
   -2.0901   -3.2119    0.0000 C   0  0  0  0  0  0  0  0  0  0  0  0
    4.4525   -2.3869    0.0000 C   0  0  0  0  0  0  0  0  0  0  0  0
    3.7380   -1.1484    0.0000 O   0  0  0  0  0  0  0  0  0  0  0  0
   -2.8046   -3.6234    0.0000 C   0  0  0  0  0  0  0  0  0  0  0  0
   -2.0901   -2.3869    0.0000 O   0  0  0  0  0  0  0  0  0  0  0  0
   -3.6295   -3.6234    0.0000 C   0  0  0  0  0  0  0  0  0  0  0  0
   -4.4545   -3.6234    0.0000 N   0  0  0  0  0  0  0  0  0  0  0  0
    0.1658   -4.0369    0.0000 H   0  0  0  0  0  0  0  0  0  0  0  0
  1  2  1  0  0  0  0 
  1  3  2  0  0  0  0 
  1  4  1  0  0  0  0 
  4  5  1  0  0  0  0 
  4  6  2  0  0  0  0 
  7  5  1  0  0  0  0 
  5  8  1  0  0  0  0 
  6  9  1  0  0  0  0 
  6 10  1  0  0  0  0 
 11  7  1  0  0  0  0 
  7 12  1  0  0  0  0 
  7 24  1  1  0  0  0 
 11  8  1  0  0  0  0 
  8 13  2  0  0  0  0 
  9 14  1  0  0  0  0 
 10 12  1  0  0  0  0 
 11 15  1  6  0  0  0 
 14 16  1  0  0  0  0 
 15 17  1  0  0  0  0 
 16 18  1  0  0  0  0 
 16 19  2  0  0  0  0 
 17 20  1  0  0  0  0 
 17 21  2  0  0  0  0 
 20 22  1  0  0  0  0 
 22 23  3  0  0  0  0 
M  END
> <ID>
CHEBI:135437

> <NAME>
cefacetrile

> <STAR>
2

> <SYNONYM>
cephacetrile; cephacetril; cefacetrile sodium

> <FORMULA>
C13H13N3O6S

> <MASS>
339.325

> <MONOISOTOPIC_MASS>
339.05251

> <CHARGE>
0

> <SMILES>
C(O)(=O)C=1N2[C@@]([C@@H](C2=O)NC(CC#N)=O)(SCC1COC(C)=O)[H]

> <INCHI>
InChI=1S/C13H13N3O6S/c1-6(17)22-4-7-5-23-12-9(15-8(18)2-3-14)11(19)16(12)10(7)13(20)21/h9,12H,2,4-5H2,1H3,(H,15,18)(H,20,21)/t9-,12-/m1/s1

> <INCHIKEY>
RRYMAQUWDLIUPV-BXKDBHETSA-N

> <CAS_REGISTRY_NUMBER>
10206-21-0

> <HMDB_ACCESSION>
HMDB0015484

$$$$

Ketcher 03141809282D 1   1.00000     0.00000     0

 29 32  0     0  0            999 V2000
    0.4986   -4.3901    0.0000 C   0  0  0  0  0  0  0  0  0  0  0  0
   -0.3671   -4.8910    0.0000 O   0  0  0  0  0  0  0  0  0  0  0  0
    1.3641   -4.8910    0.0000 O   0  0  0  0  0  0  0  0  0  0  0  0
    0.4986   -3.3905    0.0000 C   0  0  0  0  0  0  0  0  0  0  0  0
   -0.3671   -2.8920    0.0000 N   0  0  0  0  0  0  0  0  0  0  0  0
    1.3641   -2.8920    0.0000 C   0  0  0  0  0  0  0  0  0  0  0  0
   -0.3671   -1.8924    0.0000 C   0  0  0  0  0  0  0  0  0  0  0  0
   -1.3666   -2.8920    0.0000 C   0  0  0  0  0  0  0  0  0  0  0  0
    2.2297   -3.3905    0.0000 C   0  0  0  0  0  0  0  0  0  0  0  0
    1.3641   -1.8924    0.0000 C   0  0  0  0  0  0  0  0  0  0  0  0
   -1.3666   -1.8924    0.0000 C   0  0  0  0  0  0  0  0  0  0  0  0
    0.4986   -1.3915    0.0000 S   0  0  0  0  0  0  0  0  0  0  0  0
   -2.0735   -3.5964    0.0000 O   0  0  0  0  0  0  0  0  0  0  0  0
    3.0954   -2.8920    0.0000 S   0  0  0  0  0  0  0  0  0  0  0  0
   -2.2347   -1.3915    0.0000 N   0  0  0  0  0  0  0  0  0  0  0  0
    3.9609   -3.3905    0.0000 C   0  0  0  0  0  0  0  0  0  0  0  0
   -3.1002   -1.8924    0.0000 C   0  0  0  0  0  0  0  0  0  0  0  0
    4.7869   -2.7779    0.0000 N   0  0  0  0  0  0  0  0  0  0  0  0
    4.2487   -4.3255    0.0000 S   0  0  0  0  0  0  0  0  0  0  0  0
   -3.1002   -2.8920    0.0000 C   0  0  0  0  0  0  0  0  0  0  0  0
   -3.9659   -1.3915    0.0000 O   0  0  0  0  0  0  0  0  0  0  0  0
    5.5805   -3.3905    0.0000 N   0  0  0  0  0  0  0  0  0  0  0  0
    5.2556   -4.3255    0.0000 C   0  0  0  0  0  0  0  0  0  0  0  0
   -3.9659   -3.3905    0.0000 N   0  0  0  0  0  0  0  0  0  0  0  0
   -4.2883   -4.3255    0.0000 C   0  0  0  0  0  0  0  0  0  0  0  0
   -4.7570   -2.7779    0.0000 N   0  0  0  0  0  0  0  0  0  0  0  0
   -5.2953   -4.3255    0.0000 N   0  0  0  0  0  0  0  0  0  0  0  0
   -5.5831   -3.3905    0.0000 N   0  0  0  0  0  0  0  0  0  0  0  0
   -0.3671   -0.8929    0.0000 H   0  0  0  0  0  0  0  0  0  0  0  0
  1  2  1  0     0  0
  1  3  2  0     0  0
  1  4  1  0     0  0
  4  5  1  0     0  0
  4  6  2  0     0  0
  7  5  1  0     0  0
  5  8  1  0     0  0
  6  9  1  0     0  0
  6 10  1  0     0  0
 11  7  1  0     0  0
  7 12  1  0     0  0
  7 29  1  6     0  0
 11  8  1  0     0  0
  8 13  2  0     0  0
  9 14  1  0     0  0
 10 12  1  0     0  0
 11 15  1  1     0  0
 14 16  1  0     0  0
 15 17  1  0     0  0
 16 18  2  0     0  0
 16 19  1  0     0  0
 17 20  1  0     0  0
 17 21  2  0     0  0
 18 22  1  0     0  0
 19 23  1  0     0  0
 20 24  1  0     0  0
 22 23  2  0     0  0
 24 25  1  0     0  0
 24 26  1  0     0  0
 25 27  2  0     0  0
 26 28  2  0     0  0
 27 28  1  0     0  0
M  END
> <ID>
CHEBI:135716

> <NAME>
ceftezole

> <DEFINITION>
A first-generation cephalosporin antibiotic having (1,3,4-thiadiazol-2-ylsulfanyl)methyl and [2-(1H-tetrazol-1-yl)acetamido side groups located at positions 3 and 7 respectively.

> <STAR>
3

> <SYNONYM>
demethylcefazolin; demethyl cefazolin; ceftezol; (6R,7R)-8-oxo-7-[2-(1H-tetrazol-1-yl)acetamido]-3-[(1,3,4-thiadiazol-2-ylsulfanyl)methyl]-5-thia-1-azabicyclo[4.2.0]oct-2-ene-2-carboxylic acid

> <IUPAC_NAME>
7-[2-(1H-tetrazol-1-yl)acetamido]-3-[(1,3,4-thiadiazol-2-ylsulfanyl)methyl]-3,4-didehydrocepham-4-carboxylic acid

> <INN>
ceftezolum; ceftezole; ceftezole; ceftezol

> <FORMULA>
C13H12N8O4S3

> <MASS>
440.484

> <MONOISOTOPIC_MASS>
440.01436

> <CHARGE>
0

> <SMILES>
C(O)(=O)C=1N2[C@@]([C@@H](C2=O)NC(CN3C=NN=N3)=O)(SCC1CSC4=NN=CS4)[H]

> <INCHI>
InChI=1S/C13H12N8O4S3/c22-7(1-20-4-14-18-19-20)16-8-10(23)21-9(12(24)25)6(2-26-11(8)21)3-27-13-17-15-5-28-13/h4-5,8,11H,1-3H2,(H,16,22)(H,24,25)/t8-,11-/m1/s1

> <INCHIKEY>
DZMVCVMFETWNIU-LDYMZIIASA-N

> <CAS_REGISTRY_NUMBER>
26973-24-0

> <REAXYS_REGISTRY_NUMBER>
4046849

> <CHEMIDPLUS>
26973-24-0

> <WIKIPEDIA_ACCESSION>
Ceftezole

> <PUBMED_CITATION>
17671744; 29017833; 783103; 825020

$$$$

Ketcher 02131814112D 1   1.00000     0.00000     0

 33 36  0     1  0            999 V2000
   34.5053  -20.2203    0.0000 C   0  0  0  0  0  0  0  0  0  0  0  0
   33.6395  -20.7190    0.0000 O   0  0  0  0  0  0  0  0  0  0  0  0
   35.3713  -20.7190    0.0000 O   0  0  0  0  0  0  0  0  0  0  0  0
   34.5053  -19.2204    0.0000 C   0  0  0  0  0  0  0  0  0  0  0  0
   33.6369  -18.7192    0.0000 N   0  0  0  0  0  0  0  0  0  0  0  0
   35.3688  -18.7192    0.0000 C   0  0  0  0  0  0  0  0  0  0  0  0
   33.6369  -17.7193    0.0000 C   0  0  0  0  0  0  0  0  0  0  0  0
   32.6371  -18.7192    0.0000 C   0  0  0  0  0  0  0  0  0  0  0  0
   36.2371  -19.2204    0.0000 C   0  0  0  0  0  0  0  0  0  0  0  0
   35.3688  -17.7193    0.0000 C   0  0  0  0  0  0  0  0  0  0  0  0
   32.6371  -17.7193    0.0000 C   0  0  0  0  0  0  0  0  0  0  0  0
   34.5053  -17.2207    0.0000 S   0  0  0  0  0  0  0  0  0  0  0  0
   31.9300  -19.4263    0.0000 O   0  0  0  0  0  0  0  0  0  0  0  0
   37.1030  -18.7192    0.0000 N   0  0  0  0  0  0  0  0  0  0  0  0
   31.7737  -17.2207    0.0000 N   0  0  0  0  0  0  0  0  0  0  0  0
   37.4256  -17.7839    0.0000 N   0  0  0  0  0  0  0  0  0  0  0  0
   37.8945  -19.3320    0.0000 N   0  0  0  0  0  0  0  0  0  0  0  0
   38.4328  -17.7839    0.0000 C   0  0  0  0  0  0  0  0  0  0  0  0
   38.7207  -18.7192    0.0000 N   0  0  0  0  0  0  0  0  0  0  0  0
   39.0209  -16.9751    0.0000 C   0  0  0  0  0  0  0  0  0  0  0  0
   33.6369  -16.7195    0.0000 H   0  0  0  0  0  0  0  0  0  0  0  0
   30.9078  -17.7205    0.0000 C   0  0  0  0  0  0  0  0  0  0  0  0
   30.0419  -17.2205    0.0000 C   0  0  0  0  0  0  0  0  0  0  0  0
   30.9076  -18.7204    0.0000 O   0  0  0  0  0  0  0  0  0  0  0  0
   30.0420  -16.2207    0.0000 N   0  0  0  0  0  0  0  0  0  0  0  0
   29.1759  -17.7204    0.0000 C   0  0  0  0  0  0  0  0  0  0  0  0
   29.0713  -18.7148    0.0000 C   0  0  0  0  0  0  0  0  0  0  0  0
   28.2625  -17.3136    0.0000 N   0  0  0  0  0  0  0  0  0  0  0  0
   28.0933  -18.9225    0.0000 S   0  0  0  0  0  0  0  0  0  0  0  0
   27.5934  -18.0567    0.0000 C   0  0  0  0  0  0  0  0  0  0  0  0
   26.5990  -17.9522    0.0000 N   0  0  0  0  0  0  0  0  0  0  0  0
   30.9079  -15.7208    0.0000 O   0  0  0  0  0  0  0  0  0  0  0  0
   30.9081  -14.7210    0.0000 C   0  0  0  0  0  0  0  0  0  0  0  0
  1  2  1  0     0  0
  1  3  2  0     0  0
  1  4  1  0     0  0
  4  5  1  0     0  0
  4  6  2  0     0  0
  7  5  1  0     0  0
  5  8  1  0     0  0
  6  9  1  0     0  0
  6 10  1  0     0  0
 11  7  1  0     0  0
  7 12  1  0     0  0
  7 21  1  6     0  0
 11  8  1  0     0  0
  8 13  2  0     0  0
  9 14  1  0     0  0
 10 12  1  0     0  0
 11 15  1  1     0  0
 14 16  1  0     0  0
 14 17  1  0     0  0
 16 18  2  0     0  0
 17 19  2  0     0  0
 18 19  1  0     0  0
 18 20  1  0     0  0
 15 22  1  0     0  0
 22 23  1  0     0  0
 22 24  2  0     0  0
 23 25  2  0     0  0
 27 26  2  0     0  0
 28 26  1  0     0  0
 29 27  1  0     0  0
 30 28  2  0     0  0
 30 29  1  0     0  0
 23 26  1  0     0  0
 30 31  1  0     0  0
 25 32  1  0     0  0
 32 33  1  0     0  0
M  END
> <ID>
CHEBI:135776

> <NAME>
cefteram

> <DEFINITION>
A cephalosporin compound having (5-methyl-2H-tetrazol-2-yl)methyl and [(2Z)-2-(2-amino-1,3-thiazol-4-yl)-2-(methoxyimino)acetyl]amino side-groups; a third-generation cephalosporin antibiotic.

> <STAR>
3

> <SYNONYM>
ceftetrame; cefterame; (6R,7R)-7-{[(2Z)-2-(2-amino-1,3-thiazol-4-yl)-2-(methoxyimino)acetyl]amino}-3-[(5-methyl-2H-tetrazol-2-yl)methyl]-8-oxo-5-thia-1-azabicyclo[4.2.0]oct-2-ene-2-carboxylic acid

> <IUPAC_NAME>
3-[(5-methyl-2H-tetrazol-2-yl)methyl]-7beta-{[(2Z)-2-(2-amino-1,3-thiazol-4-yl)-2-(methoxyimino)acetyl]amino}-3,4-didehydrocepham-4-carboxyic acid

> <INN>
cefteram

> <FORMULA>
C16H17N9O5S2

> <MASS>
479.496

> <MONOISOTOPIC_MASS>
479.07941

> <CHARGE>
0

> <SMILES>
C(O)(=O)C=1N2[C@@]([C@@H](C2=O)NC(/C(=N\OC)/C3=CSC(=N3)N)=O)(SCC1CN4N=C(N=N4)C)[H]

> <INCHI>
InChI=1S/C16H17N9O5S2/c1-6-20-23-24(21-6)3-7-4-31-14-10(13(27)25(14)11(7)15(28)29)19-12(26)9(22-30-2)8-5-32-16(17)18-8/h5,10,14H,3-4H2,1-2H3,(H2,17,18)(H,19,26)(H,28,29)/b22-9-/t10-,14-/m1/s1

> <INCHIKEY>
XSPUSVIQHBDITA-RKYNPMAHSA-N

> <CAS_REGISTRY_NUMBER>
82547-58-8

> <REAXYS_REGISTRY_NUMBER>
6030279

> <CHEMIDPLUS>
82547-58-8

> <WIKIPEDIA_ACCESSION>
Cefteram

> <PUBMED_CITATION>
16944260; 29017833

$$$$
cefuroxime pivoxetil
  CDK     0223171740
null
 41 43  0  0  0  0  0  0  0  0999 V2000
    2.3571   -3.2411    0.0000 C   0  0  0  0  0  0  0  0  0  0  0  0
    1.6427   -3.6536    0.0000 N   0  0  0  0  0  0  0  0  0  0  0  0
    1.6427   -4.4786    0.0000 C   0  0  2  0  0  0  0  0  0  0  0  0
    2.3571   -4.8911    0.0000 S   0  0  0  0  0  0  0  0  0  0  0  0
    3.0716   -4.4786    0.0000 C   0  0  0  0  0  0  0  0  0  0  0  0
    3.0716   -3.6536    0.0000 C   0  0  0  0  0  0  0  0  0  0  0  0
    0.8177   -4.4786    0.0000 C   0  0  1  0  0  0  0  0  0  0  0  0
    0.8177   -3.6536    0.0000 C   0  0  0  0  0  0  0  0  0  0  0  0
    2.3571   -2.4161    0.0000 C   0  0  0  0  0  0  0  0  0  0  0  0
    3.0716   -2.0036    0.0000 O   0  0  0  0  0  0  0  0  0  0  0  0
    1.6427   -2.0036    0.0000 O   0  0  0  0  0  0  0  0  0  0  0  0
    3.7861   -3.2411    0.0000 C   0  0  0  0  0  0  0  0  0  0  0  0
    4.5006   -3.6536    0.0000 O   0  0  0  0  0  0  0  0  0  0  0  0
    5.2150   -3.2411    0.0000 C   0  0  0  0  0  0  0  0  0  0  0  0
    5.9295   -3.6536    0.0000 N   0  0  0  0  0  0  0  0  0  0  0  0
    5.2150   -2.4161    0.0000 O   0  0  0  0  0  0  0  0  0  0  0  0
    0.2343   -3.0702    0.0000 O   0  0  0  0  0  0  0  0  0  0  0  0
   -0.0073   -4.4786    0.0000 N   0  0  0  0  0  0  0  0  0  0  0  0
    0.8177   -5.3036    0.0000 H   0  0  0  0  0  0  0  0  0  0  0  0
    1.6427   -5.3036    0.0000 H   0  0  0  0  0  0  0  0  0  0  0  0
   -0.4198   -5.1930    0.0000 C   0  0  0  0  0  0  0  0  0  0  0  0
   -1.2448   -5.1930    0.0000 C   0  0  0  0  0  0  0  0  0  0  0  0
   -0.0073   -5.9075    0.0000 O   0  0  0  0  0  0  0  0  0  0  0  0
   -1.6573   -5.9075    0.0000 C   0  0  0  0  0  0  0  0  0  0  0  0
   -1.6573   -4.4786    0.0000 N   0  0  0  0  0  0  0  0  0  0  0  0
   -1.2448   -3.7641    0.0000 O   0  0  0  0  0  0  0  0  0  0  0  0
   -1.6573   -3.0496    0.0000 C   0  0  0  0  0  0  0  0  0  0  0  0
   -2.4778   -5.9938    0.0000 O   0  0  0  0  0  0  0  0  0  0  0  0
   -2.6493   -6.8007    0.0000 C   0  0  0  0  0  0  0  0  0  0  0  0
   -1.9348   -7.2132    0.0000 C   0  0  0  0  0  0  0  0  0  0  0  0
   -1.3218   -6.6612    0.0000 C   0  0  0  0  0  0  0  0  0  0  0  0
    3.0716   -1.1786    0.0000 C   0  0  0  0  0  0  0  0  0  0  0  0
    3.7861   -0.7661    0.0000 C   0  0  0  0  0  0  0  0  0  0  0  0
    2.3571   -0.7661    0.0000 O   0  0  0  0  0  0  0  0  0  0  0  0
    2.3571    0.0589    0.0000 C   0  0  0  0  0  0  0  0  0  0  0  0
    1.6427    0.4714    0.0000 O   0  0  0  0  0  0  0  0  0  0  0  0
    3.0716    0.4714    0.0000 C   0  0  0  0  0  0  0  0  0  0  0  0
    3.0716    1.2964    0.0000 C   0  0  0  0  0  0  0  0  0  0  0  0
    3.7861    0.0589    0.0000 C   0  0  0  0  0  0  0  0  0  0  0  0
    3.7861    0.8839    0.0000 O   0  0  0  0  0  0  0  0  0  0  0  0
    3.7861    1.7089    0.0000 C   0  0  0  0  0  0  0  0  0  0  0  0
  1  2  1  0  0  0  0 
  2  3  1  0  0  0  0 
  3  4  1  0  0  0  0 
  4  5  1  0  0  0  0 
  5  6  1  0  0  0  0 
  1  6  2  0  0  0  0 
  7  8  1  0  0  0  0 
  8  2  1  0  0  0  0 
  3  7  1  0  0  0  0 
  1  9  1  0  0  0  0 
  9 10  1  0  0  0  0 
  9 11  2  0  0  0  0 
  6 12  1  0  0  0  0 
 12 13  1  0  0  0  0 
 13 14  1  0  0  0  0 
 14 15  1  0  0  0  0 
 14 16  2  0  0  0  0 
  8 17  2  0  0  0  0 
  7 18  1  6  0  0  0 
  7 19  1  1  0  0  0 
  3 20  1  1  0  0  0 
 18 21  1  0  0  0  0 
 21 22  1  0  0  0  0 
 21 23  2  0  0  0  0 
 22 24  1  0  0  0  0 
 22 25  2  0  0  0  0 
 25 26  1  0  0  0  0 
 26 27  1  0  0  0  0 
 28 29  1  0  0  0  0 
 29 30  2  0  0  0  0 
 30 31  1  0  0  0  0 
 24 28  1  0  0  0  0 
 24 31  2  0  0  0  0 
 10 32  1  0  0  0  0 
 32 33  1  0  0  0  0 
 32 34  1  0  0  0  0 
 34 35  1  0  0  0  0 
 35 36  2  0  0  0  0 
 35 37  1  0  0  0  0 
 37 38  1  0  0  0  0 
 37 39  1  0  0  0  0 
 37 40  1  0  0  0  0 
 40 41  1  0  0  0  0 
M  END
> <ID>
CHEBI:135833

> <NAME>
cefuroxime pivoxetil

> <STAR>
2

> <FORMULA>
C23H28N4O11S

> <MASS>
568.556

> <MONOISOTOPIC_MASS>
568.14753

> <CHARGE>
0

> <SMILES>
C=1(N2[C@](SCC1COC(N)=O)([C@@](C2=O)(NC(/C(/C=3OC=CC3)=N\OC)=O)[H])[H])C(OC(C)OC(=O)C(C)(C)OC)=O

> <INCHI>
InChI=1S/C23H28N4O11S/c1-11(38-21(31)23(2,3)33-4)37-20(30)16-12(9-36-22(24)32)10-39-19-15(18(29)27(16)19)25-17(28)14(26-34-5)13-7-6-8-35-13/h6-8,11,15,19H,9-10H2,1-5H3,(H2,24,32)(H,25,28)/b26-14-/t11?,15-,19-/m1/s1

> <INCHIKEY>
MGYPWVCKENORQX-KMMUMHRISA-N

> <CAS_REGISTRY_NUMBER>
100680-33-9

$$$$

Ketcher 03121816452D 1   1.00000     0.00000     0

 44 47  0     1  0            999 V2000
   14.2286  -85.0567    0.0000 N   0  0  0  0  0  0  0  0  0  0  0  0
   13.3626  -85.5579    0.0000 C   0  0  0  0  0  0  0  0  0  0  0  0
   15.0945  -85.5579    0.0000 C   0  0  0  0  0  0  0  0  0  0  0  0
   12.4966  -85.0567    0.0000 C   0  0  0  0  0  0  0  0  0  0  0  0
   13.3626  -86.5578    0.0000 O   0  0  0  0  0  0  0  0  0  0  0  0
   15.3700  -84.5978    0.0000 O   0  0  0  0  0  0  0  0  0  0  0  0
   16.0944  -85.5579    0.0000 C   0  0  0  0  0  0  0  0  0  0  0  0
   15.0945  -86.5578    0.0000 C   0  0  0  0  0  0  0  0  0  0  0  0
   11.6308  -85.5579    0.0000 N   0  0  0  0  0  0  0  0  0  0  0  0
   12.4966  -84.0568    0.0000 C   0  0  0  0  0  0  0  0  0  0  0  0
   15.3700  -83.5978    0.0000 C   0  0  0  0  0  0  0  0  0  0  0  0
   16.0944  -86.5578    0.0000 N   0  0  0  0  0  0  0  0  0  0  0  0
   16.9628  -85.0567    0.0000 S   0  0  0  0  0  0  0  0  0  0  0  0
   14.3874  -87.2651    0.0000 O   0  0  0  0  0  0  0  0  0  0  0  0
   10.7648  -85.0567    0.0000 C   0  0  0  0  0  0  0  0  0  0  0  0
   13.3626  -83.5581    0.0000 C   0  0  0  0  0  0  0  0  0  0  0  0
   11.6308  -83.5581    0.0000 O   0  0  0  0  0  0  0  0  0  0  0  0
   16.9628  -87.0566    0.0000 C   0  0  0  0  0  0  0  0  0  0  0  0
   17.8263  -85.5579    0.0000 C   0  0  0  0  0  0  0  0  0  0  0  0
   10.7648  -84.0568    0.0000 O   0  0  0  0  0  0  0  0  0  0  0  0
    9.8989  -85.5579    0.0000 N   0  0  0  0  0  0  0  0  0  0  0  0
   16.9628  -88.0565    0.0000 C   0  0  0  0  0  0  0  0  0  0  0  0
   17.8263  -86.5578    0.0000 C   0  0  0  0  0  0  0  0  0  0  0  0
    9.0329  -85.0567    0.0000 C   0  0  0  0  0  0  0  0  0  0  0  0
    9.8989  -86.5578    0.0000 C   0  0  0  0  0  0  0  0  0  0  0  0
   16.0969  -88.5576    0.0000 O   0  0  0  0  0  0  0  0  0  0  0  0
   17.8288  -88.5576    0.0000 O   0  0  0  0  0  0  0  0  0  0  0  0
   18.6923  -87.0566    0.0000 C   0  0  0  0  0  0  0  0  0  0  0  0
    9.0329  -84.0568    0.0000 O   0  0  0  0  0  0  0  0  0  0  0  0
    8.1671  -85.5579    0.0000 C   0  0  0  0  0  0  0  0  0  0  0  0
    9.0329  -87.0566    0.0000 C   0  0  0  0  0  0  0  0  0  0  0  0
   19.5581  -86.5578    0.0000 S   0  0  0  0  0  0  0  0  0  0  0  0
    7.3010  -85.0567    0.0000 O   0  0  0  0  0  0  0  0  0  0  0  0
    8.1671  -86.5578    0.0000 N   0  0  0  0  0  0  0  0  0  0  0  0
   20.4266  -87.0566    0.0000 C   0  0  0  0  0  0  0  0  0  0  0  0
    7.3010  -87.0566    0.0000 C   0  0  0  0  0  0  0  0  0  0  0  0
   20.7492  -87.9921    0.0000 N   0  0  0  0  0  0  0  0  0  0  0  0
   21.2181  -86.4462    0.0000 N   0  0  0  0  0  0  0  0  0  0  0  0
    6.4352  -86.5578    0.0000 C   0  0  0  0  0  0  0  0  0  0  0  0
   20.1760  -88.8108    0.0000 C   0  0  0  0  0  0  0  0  0  0  0  0
   21.7565  -87.9921    0.0000 N   0  0  0  0  0  0  0  0  0  0  0  0
   22.0443  -87.0566    0.0000 N   0  0  0  0  0  0  0  0  0  0  0  0
   16.0944  -84.5580    0.0000 H   0  0  0  0  0  0  0  0  0  0  0  0
   13.3626  -84.5580    0.0000 H   0  0  0  0  0  0  0  0  0  0  0  0
  1  2  1  0     0  0
  3  1  1  1     0  0
  4  2  1  0     0  0
  2  5  2  0     0  0
  3  6  1  6     0  0
  7  3  1  0     0  0
  3  8  1  0     0  0
  4  9  1  1     0  0
 10  4  1  0     0  0
  4 44  1  1     0  0
  6 11  1  0     0  0
  7 12  1  0     0  0
  7 13  1  0     0  0
  7 43  1  6     0  0
  8 12  1  0     0  0
  8 14  2  0     0  0
  9 15  1  0     0  0
 10 16  1  0     0  0
 10 17  1  1     0  0
 12 18  1  0     0  0
 13 19  1  0     0  0
 15 20  2  0     0  0
 15 21  1  0     0  0
 18 22  1  0     0  0
 18 23  2  0     0  0
 19 23  1  0     0  0
 21 24  1  0     0  0
 21 25  1  0     0  0
 22 26  1  0     0  0
 22 27  2  0     0  0
 23 28  1  0     0  0
 24 29  2  0     0  0
 24 30  1  0     0  0
 25 31  1  0     0  0
 28 32  1  0     0  0
 30 33  2  0     0  0
 30 34  1  0     0  0
 31 34  1  0     0  0
 32 35  1  0     0  0
 34 36  1  0     0  0
 35 37  1  0     0  0
 35 38  2  0     0  0
 36 39  1  0     0  0
 37 40  1  0     0  0
 37 41  1  0     0  0
 38 42  1  0     0  0
 41 42  2  0     0  0
M  END
> <ID>
CHEBI:135856

> <NAME>
cefbuperazone

> <DEFINITION>
A second-generation cephamycin antibiotic having [(1-methyl-1H-tetrazol-5-yl)sulfanyl]methyl and {N-[(4-ethyl-2,3-dioxopiperazin-1-yl)carbonyl]-D-threonyl}amino side groups located at positions 3 and 7β respectively.

> <STAR>
3

> <SYNONYM>
CBPZ; (6R,7S)-7-({N-[(4-ethyl-2,3-dioxopiperazin-1-yl)carbonyl]-D-threonyl}amino)-7-methoxy-3-{[(1-methyl-1H-tetrazol-5-yl)sulfanyl]methyl}-8-oxo-5-thia-1-azabicyclo[4.2.0]oct-2-ene-2-carboxylic acid

> <IUPAC_NAME>
(7S)-7-({N-[(4-ethyl-2,3-dioxopiperazin-1-yl)carbonyl]-D-threonyl}amino)-7-methoxy-3-{[(1-methyl-1H-tetrazol-5-yl)sulfanyl]methyl}-3,4-didehydrocepham-4-carboxylic acid

> <INN>
cerbuperazone; cefbuperazonum; cefbuperazone; cefbuperazona

> <FORMULA>
C22H29N9O9S2

> <MASS>
627.654

> <MONOISOTOPIC_MASS>
627.15297

> <CHARGE>
0

> <SMILES>
N(C([C@](NC(=O)N1C(=O)C(=O)N(CC1)CC)([C@H](C)O)[H])=O)[C@@]2(OC)[C@@]3(N(C2=O)C(C(O)=O)=C(CS3)CSC=4N(C)N=NN4)[H]

> <INCHI>
InChI=1S/C22H29N9O9S2/c1-5-29-6-7-30(16(35)15(29)34)20(39)23-12(10(2)32)14(33)24-22(40-4)18(38)31-13(17(36)37)11(8-41-19(22)31)9-42-21-25-26-27-28(21)3/h10,12,19,32H,5-9H2,1-4H3,(H,23,39)(H,24,33)(H,36,37)/t10-,12+,19+,22-/m0/s1

> <INCHIKEY>
SMSRCGPDNDCXFR-CYWZMYCQSA-N

> <CAS_REGISTRY_NUMBER>
76610-84-9

> <CHEMIDPLUS>
76610-84-9

> <KEGG_DRUG_ACCESSION>
D03423

> <WIKIPEDIA_ACCESSION>
Cefbuperazone

> <PUBMED_CITATION>
29017833; 8904147

$$$$

Ketcher 03121815002D 1   1.00000     0.00000     0

 50 55  0     1  0            999 V2000
   13.7528  -64.4688    0.0000 C   0  0  0  0  0  0  0  0  0  0  0  0
   12.8866  -64.9687    0.0000 N   0  0  0  0  0  0  0  0  0  0  0  0
   12.8866  -65.9687    0.0000 C   0  0  0  0  0  0  0  0  0  0  0  0
   13.7528  -66.4687    0.0000 S   0  0  0  0  0  0  0  0  0  0  0  0
   14.6186  -65.9687    0.0000 C   0  0  0  0  0  0  0  0  0  0  0  0
   14.6186  -64.9687    0.0000 C   0  0  0  0  0  0  0  0  0  0  0  0
   11.8867  -65.9687    0.0000 C   0  0  0  0  0  0  0  0  0  0  0  0
   11.8867  -64.9687    0.0000 C   0  0  0  0  0  0  0  0  0  0  0  0
   11.1795  -64.2616    0.0000 O   0  0  0  0  0  0  0  0  0  0  0  0
   13.7528  -63.4687    0.0000 C   0  0  0  0  0  0  0  0  0  0  0  0
   14.6186  -62.9687    0.0000 O   0  0  0  0  0  0  0  0  0  0  0  0
   12.8866  -62.9687    0.0000 O   0  0  0  0  0  0  0  0  0  0  0  0
   15.4847  -64.4688    0.0000 C   0  0  0  0  0  0  0  0  0  0  0  0
   16.3508  -64.9687    0.0000 C   0  0  0  0  0  0  0  0  0  0  0  0
   16.4552  -65.9632    0.0000 C   0  0  0  0  0  0  0  0  0  0  0  0
   17.4335  -66.1711    0.0000 C   0  0  0  0  0  0  0  0  0  0  0  0
   17.9335  -65.3051    0.0000 N   0  0  0  0  0  0  0  0  0  0  0  0
   17.2644  -64.5621    0.0000 C   0  0  0  0  0  0  0  0  0  0  0  0
   17.4723  -63.5838    0.0000 O   0  0  0  0  0  0  0  0  0  0  0  0
   18.9279  -65.2006    0.0000 C   0  0  0  0  0  0  0  0  0  0  0  0
   19.5971  -65.9438    0.0000 C   0  0  0  0  0  0  0  0  0  0  0  0
   20.5106  -65.5371    0.0000 N   0  0  0  0  0  0  0  0  0  0  0  0
   20.4060  -64.5425    0.0000 C   0  0  0  0  0  0  0  0  0  0  0  0
   19.4280  -64.3345    0.0000 C   0  0  0  0  0  0  0  0  0  0  0  0
   18.4279  -66.0667    0.0000 H   0  0  0  0  0  0  0  0  0  0  0  0
   11.0206  -66.4687    0.0000 N   0  0  0  0  0  0  0  0  0  0  0  0
   10.1547  -65.9687    0.0000 C   0  0  0  0  0  0  0  0  0  0  0  0
    9.2886  -66.4687    0.0000 C   0  0  0  0  0  0  0  0  0  0  0  0
   10.1547  -64.9687    0.0000 O   0  0  0  0  0  0  0  0  0  0  0  0
    8.4225  -65.9687    0.0000 C   0  0  0  0  0  0  0  0  0  0  0  0
    9.2886  -67.4687    0.0000 N   0  0  0  0  0  0  0  0  0  0  0  0
   10.1547  -67.9687    0.0000 O   0  0  0  0  0  0  0  0  0  0  0  0
    8.3181  -64.9742    0.0000 N   0  0  0  0  0  0  0  0  0  0  0  0
    7.3399  -64.7663    0.0000 S   0  0  0  0  0  0  0  0  0  0  0  0
    6.8398  -65.6323    0.0000 C   0  0  0  0  0  0  0  0  0  0  0  0
    7.5090  -66.3754    0.0000 N   0  0  0  0  0  0  0  0  0  0  0  0
    5.8454  -65.7368    0.0000 N   0  0  0  0  0  0  0  0  0  0  0  0
   12.8866  -66.9688    0.0000 H   0  0  0  0  0  0  0  0  0  0  0  0
   11.8867  -66.9688    0.0000 H   0  0  0  0  0  0  0  0  0  0  0  0
   21.3766  -66.0371    0.0000 C   0  0  0  0  0  0  0  0  0  0  0  0
   22.2426  -65.5371    0.0000 O   0  0  0  0  0  0  0  0  0  0  0  0
   21.3766  -67.0371    0.0000 O   0  0  0  0  0  0  0  0  0  0  0  0
   23.1086  -66.0371    0.0000 C   0  0  0  0  0  0  0  0  0  0  0  0
   23.9746  -65.5371    0.0000 C   0  0  0  0  0  0  0  0  0  0  0  0
   24.9623  -65.6935    0.0000 O   0  0  0  0  0  0  0  0  0  0  0  0
   25.4163  -64.8025    0.0000 C   0  0  0  0  0  0  0  0  0  0  0  0
   24.7092  -64.0954    0.0000 O   0  0  0  0  0  0  0  0  0  0  0  0
   23.8183  -64.5494    0.0000 C   0  0  0  0  0  0  0  0  0  0  0  0
   22.9272  -64.0954    0.0000 C   0  0  0  0  0  0  0  0  0  0  0  0
   26.4040  -64.6461    0.0000 O   0  0  0  0  0  0  0  0  0  0  0  0
  1  2  1  0     0  0
  1  6  2  0     0  0
  2  3  1  0     0  0
  3  4  1  0     0  0
  4  5  1  0     0  0
  5  6  1  0     0  0
  7  8  1  0     0  0
  8  2  1  0     0  0
  3  7  1  0     0  0
  8  9  2  0     0  0
  1 10  1  0     0  0
 10 11  1  0     0  0
 10 12  2  0     0  0
  6 13  1  0     0  0
 13 14  2  0     0  0
 15 16  1  0     0  0
 16 17  1  0     0  0
 17 18  1  0     0  0
 14 15  1  0     0  0
 14 18  1  0     0  0
 18 19  2  0     0  0
 20 17  1  6     0  0
 21 22  1  0     0  0
 22 23  1  0     0  0
 23 24  1  0     0  0
 20 21  1  0     0  0
 20 24  1  0     0  0
 20 25  1  1     0  0
  7 26  1  6     0  0
 26 27  1  0     0  0
 27 28  1  0     0  0
 27 29  2  0     0  0
 28 30  1  0     0  0
 28 31  2  0     0  0
 31 32  1  0     0  0
 33 34  1  0     0  0
 34 35  1  0     0  0
 35 36  2  0     0  0
 30 33  2  0     0  0
 30 36  1  0     0  0
 35 37  1  0     0  0
  3 38  1  1     0  0
  7 39  1  1     0  0
 22 40  1  0     0  0
 40 41  1  0     0  0
 40 42  2  0     0  0
 41 43  1  0     0  0
 43 44  1  0     0  0
 45 46  1  0     0  0
 46 47  1  0     0  0
 47 48  1  0     0  0
 44 45  1  0     0  0
 44 48  2  0     0  0
 48 49  1  0     0  0
 46 50  2  0     0  0
M  END
> <ID>
CHEBI:135968

> <NAME>
ceftobiprole medocaril

> <STAR>
2

> <SYNONYM>
Ro 65-5788; ceftobiprole medocaril sodium; BAL9141; BAL5788; BAL-9141; BAL 9141-000; BAL 9141

> <FORMULA>
C26H26N8O11S2; C26H26N8O11S2

> <MASS>
690.665

> <MONOISOTOPIC_MASS>
690.11625

> <CHARGE>
0

> <SMILES>
C=1(N2[C@](SCC1/C=C/3\CCN(C3=O)[C@]4(CN(CC4)C(OCC=5OC(OC5C)=O)=O)[H])([C@@](C2=O)(NC(/C(/C6=NSC(=N6)N)=N\O)=O)[H])[H])C(O)=O

> <INCHI>
InChI=1S/C26H26N8O11S2/c1-10-14(45-26(41)44-10)8-43-25(40)32-4-3-13(7-32)33-5-2-11(20(33)36)6-12-9-46-22-16(21(37)34(22)17(12)23(38)39)28-19(35)15(30-42)18-29-24(27)47-31-18/h6,13,16,22,42H,2-5,7-9H2,1H3,(H,28,35)(H,38,39)(H2,27,29,31)/b11-6+,30-15-/t13-,16-,22-/m1/s1

> <INCHIKEY>
HFTSMHTWUFCYMJ-YIOMYIDASA-N

> <CAS_REGISTRY_NUMBER>
376653-43-9

$$$$

Marvin  03241016062D          

  7  6  0  0  0  0            999 V2000
   10.9478  -11.9550    0.0000 C   0  0  0  0  0  0  0  0  0  0  0  0
   10.2337  -11.5418    0.0000 C   0  0  0  0  0  0  0  0  0  0  0  0
    9.5174  -11.9563    0.0000 C   0  0  0  0  0  0  0  0  0  0  0  0
    8.8033  -11.5431    0.0000 C   0  0  0  0  0  0  0  0  0  0  0  0
   12.3692  -11.9693    0.0000 C   0  0  0  0  0  0  0  0  0  0  0  0
   11.6551  -11.5562    0.0000 N   0  0  0  0  0  0  0  0  0  0  0  0
   13.0833  -12.3825    0.0000 O   0  0  0  0  0  0  0  0  0  0  0  0
  6  5  2  0  0  0  0
  7  5  2  0  0  0  0
  1  6  1  0  0  0  0
  2  1  1  0  0  0  0
  3  2  1  0  0  0  0
  4  3  1  0  0  0  0
M  END
> <ID>
CHEBI:136519

> <NAME>
n-butyl isocyanate

> <DEFINITION>
An isocyanate having a butyl group attached to the nitrogen.

> <STAR>
3

> <SYNONYM>
N-Butyl isocyanate; Butyl isocyanate; BIC; 1-Butyl isocyanate

> <IUPAC_NAME>
1-isocyanatobutane

> <FORMULA>
C5H9NO

> <MASS>
99.13110

> <MONOISOTOPIC_MASS>
99.06841

> <CHARGE>
0

> <SMILES>
CCCCN=C=O

> <INCHI>
InChI=1S/C5H9NO/c1-2-3-4-6-5-7/h2-4H2,1H3

> <INCHIKEY>
HNHVTXYLRVGMHD-UHFFFAOYSA-N

> <BEILSTEIN_REGISTRY_NUMBER>
773917

> <CAS_REGISTRY_NUMBER>
111-36-4

> <GMELIN_REGISTRY_NUMBER>
662892

> <REAXYS_REGISTRY_NUMBER>
773917

> <CHEMIDPLUS>
111-36-4

> <NIST_CHEMISTRY_WEBBOOK>
111-36-4

> <PUBMED_CITATION>
16091349; 25532938; 6821040

$$$$

Marvin  03121015202D          

  9  9  0  0  0  0            999 V2000
    1.7257   -1.9926    0.0000 C   0  0  0  0  0  0  0  0  0  0  0  0
    1.7257   -2.8182    0.0000 C   0  0  0  0  0  0  0  0  0  0  0  0
    1.0139   -1.5786    0.0000 C   0  0  0  0  0  0  0  0  0  0  0  0
    2.4364   -1.5786    0.0000 N   0  0  0  0  0  0  0  0  0  0  0  0
    1.0139   -3.2309    0.0000 C   0  0  0  0  0  0  0  0  0  0  0  0
    0.2995   -1.9926    0.0000 C   0  0  0  0  0  0  0  0  0  0  0  0
    3.1364   -1.9818    0.0000 C   0  0  0  0  0  0  0  0  0  0  0  0
    0.2995   -2.8182    0.0000 C   0  0  0  0  0  0  0  0  0  0  0  0
    3.8342   -2.3840    0.0000 O   0  0  0  0  0  0  0  0  0  0  0  0
  1  2  1  0  0  0  0
  1  3  1  0  0  0  0
  1  4  1  0  0  0  0
  2  5  1  0  0  0  0
  3  6  1  0  0  0  0
  4  7  2  0  0  0  0
  5  8  1  0  0  0  0
  6  8  1  0  0  0  0
  7  9  2  0  0  0  0
M  END
> <ID>
CHEBI:136604

> <NAME>
cyclohexyl isocyanate

> <DEFINITION>
An isocyanate comprising a cyclohexane core with a single isocyanato substituent.

> <STAR>
3

> <SYNONYM>
Isocyanic acid, cyclohexyl ester; isocyanato-cyclohexane; Cyclohexylisocyanate; Cyclohexyl isocyanate; CHI

> <IUPAC_NAME>
isocyanatocyclohexane

> <FORMULA>
C7H11NO

> <MASS>
125.16830

> <MONOISOTOPIC_MASS>
125.08406

> <CHARGE>
0

> <SMILES>
O=C=NC1CCCCC1

> <INCHI>
InChI=1S/C7H11NO/c9-6-8-7-4-2-1-3-5-7/h7H,1-5H2

> <INCHIKEY>
KQWGXHWJMSMDJJ-UHFFFAOYSA-N

> <BEILSTEIN_REGISTRY_NUMBER>
507983

> <CAS_REGISTRY_NUMBER>
3173-53-3

> <GMELIN_REGISTRY_NUMBER>
50386

> <REAXYS_REGISTRY_NUMBER>
507983

> <CHEMIDPLUS>
3173-53-3

> <NIST_CHEMISTRY_WEBBOOK>
3173-53-3

> <PUBMED_CITATION>
6296214; 6821040

$$$$

11280714502D 1   1.00000     0.00000     0

 13 13  0     0  0            999 V2000
    2.4292   -4.1875    0.0000 C   0  0  0  0  0  0           0  0  0
    2.4292   -5.0167    0.0000 C   0  0  0  0  0  0           0  0  0
    3.1417   -3.7750    0.0000 C   0  0  0  0  0  0           0  0  0
    3.1417   -5.4292    0.0000 C   0  0  0  0  0  0           0  0  0
    3.8542   -4.1875    0.0000 C   0  0  0  0  0  0           0  0  0
    3.8542   -5.0167    0.0000 C   0  0  0  0  0  0           0  0  0
    1.7167   -3.7792    0.0000 O   0  0  0  0  0  0           0  0  0
    1.7125   -5.4292    0.0000 O   0  0  0  0  0  0           0  0  0
    6.0000   -3.7667    0.0000 N   0  0  0  0  0  0           0  0  0
    5.2875   -4.1792    0.0000 C   0  0  0  0  0  0           0  0  0
    4.5667   -3.7667    0.0000 C   0  0  0  0  0  0           0  0  0
    1.7167   -2.9542    0.0000 C   0  0  0  0  0  0           0  0  0
    1.0000   -5.0167    0.0000 C   0  0  0  0  0  0           0  0  0
  2  1  2  0     0  0
  3  1  1  0     0  0
  4  2  1  0     0  0
  5  3  2  0     0  0
  6  5  1  0     0  0
  7  1  1  0     0  0
  8  2  1  0     0  0
  9 10  1  0     0  0
 10 11  1  0     0  0
 11  5  1  0     0  0
 12  7  1  0     0  0
 13  8  1  0     0  0
  4  6  2  0     0  0
M  END
> <ID>
CHEBI:136995

> <NAME>
3,4-dimethoxyphenylethylamine

> <DEFINITION>
An  aromatic ether that is the derivative of 2-phenylethylamine with methoxy substituents at the 3- and 4-positions. It is an alkaloid isolated from the Cactaceae family.

> <STAR>
3

> <SYNONYM>
O,O-Dimethyldopamine; Homoveratrylamine; Dopamine dimethyl ether; DMPEA; DIMPEA; Dimethylmescaline; Dimethoxyphenylethylamine; Dimethoxydopamine; beta-(3,4-Dimethyoxyphenyl)ethylamine; 3,4-Dimethoxyphenethylamine; 3,4-Dimethoxydopamine; 3,4-Dimethoxybenzeneethanamine; 3,4-Dimethoxy-beta-phenylethylamine; 3,4-Di-O-methyldopamine; 2-(3,4-Dimethoxy-phenyl)-ethylamine

> <IUPAC_NAME>
2-(3,4-dimethoxyphenyl)ethanamine

> <FORMULA>
C10H15NO2

> <MASS>
181.23160

> <MONOISOTOPIC_MASS>
181.11028

> <CHARGE>
0

> <SMILES>
COc1ccc(CCN)cc1OC

> <INCHI>
InChI=1S/C10H15NO2/c1-12-9-4-3-8(5-6-11)7-10(9)13-2/h3-4,7H,5-6,11H2,1-2H3

> <INCHIKEY>
ANOUKFYBOAKOIR-UHFFFAOYSA-N

> <BEILSTEIN_REGISTRY_NUMBER>
474393

> <CAS_REGISTRY_NUMBER>
120-20-7

> <GMELIN_REGISTRY_NUMBER>
432812

> <REAXYS_REGISTRY_NUMBER>
474393

> <CHEMIDPLUS>
120-20-7

> <HMDB_ACCESSION>
HMDB0041806

> <LINCS_ACCESSION>
LSM-5691

> <NIST_CHEMISTRY_WEBBOOK>
120-20-7

> <WIKIPEDIA_ACCESSION>
3,4-dimethoxyphenethylamine

> <PUBMED_CITATION>
1221818; 21504819; 3377143; 5812246; 7059639; 8911701

$$$$

Ketcher 02131812212D 1   1.00000     0.00000     0

 28 30  0     1  0            999 V2000
   14.3362   -6.0935    0.0000 C   0  0  0  0  0  0  0  0  0  0  0  0
   14.3362   -7.0924    0.0000 N   0  0  0  0  0  0  0  0  0  0  0  0
   15.2013   -7.5918    0.0000 C   0  0  0  0  0  0  0  0  0  0  0  0
   16.0664   -7.0924    0.0000 C   0  0  0  0  0  0  0  0  0  0  0  0
   16.0664   -6.0935    0.0000 C   0  0  0  0  0  0  0  0  0  0  0  0
   15.2013   -5.5941    0.0000 S   0  0  0  0  0  0  0  0  0  0  0  0
   13.3373   -6.0935    0.0000 C   0  0  0  0  0  0  0  0  0  0  0  0
   13.3373   -7.0924    0.0000 C   0  0  0  0  0  0  0  0  0  0  0  0
   12.4722   -5.5941    0.0000 N   0  0  0  0  0  0  0  0  0  0  0  0
   11.6071   -6.0935    0.0000 C   0  0  0  0  0  0  0  0  0  0  0  0
   11.6071   -7.0924    0.0000 O   0  0  0  0  0  0  0  0  0  0  0  0
   12.4722   -7.5918    0.0000 O   0  0  0  0  0  0  0  0  0  0  0  0
   10.7420   -5.5941    0.0000 C   0  0  0  0  0  0  0  0  0  0  0  0
   16.9448   -7.5998    0.0000 C   0  0  0  0  0  0  0  0  0  0  0  0
   15.2013   -8.5906    0.0000 C   0  0  0  0  0  0  0  0  0  0  0  0
   14.3242   -9.0971    0.0000 O   0  0  0  0  0  0  0  0  0  0  0  0
   16.0542   -9.0832    0.0000 O   0  0  0  0  0  0  0  0  0  0  0  0
    9.8630   -6.1018    0.0000 N   0  0  0  0  0  0  0  0  0  0  0  0
   14.3362   -5.0936    0.0000 H   0  0  0  0  0  0  0  0  0  0  0  0
   17.8100   -7.1005    0.0000 O   0  0  0  0  0  0  0  0  0  0  0  0
   18.6750   -7.6002    0.0000 C   0  0  0  0  0  0  0  0  0  0  0  0
    9.8632   -7.1007    0.0000 O   0  0  0  0  0  0  0  0  0  0  0  0
   10.7418   -4.5951    0.0000 C   0  0  0  0  0  0  0  0  0  0  0  0
    9.9336   -4.0080    0.0000 C   0  0  0  0  0  0  0  0  0  0  0  0
   11.5499   -4.0078    0.0000 N   0  0  0  0  0  0  0  0  0  0  0  0
   10.2422   -3.0580    0.0000 S   0  0  0  0  0  0  0  0  0  0  0  0
   11.2411   -3.0577    0.0000 C   0  0  0  0  0  0  0  0  0  0  0  0
   11.8281   -2.2495    0.0000 N   0  0  0  0  0  0  0  0  0  0  0  0
  1  2  1  0     0  0
  2  3  1  0     0  0
  3  4  2  0     0  0
  4  5  1  0     0  0
  5  6  1  0     0  0
  1  6  1  0     0  0
  1  7  1  0     0  0
  7  8  1  0     0  0
  2  8  1  0     0  0
  7  9  1  1     0  0
  9 10  1  0     0  0
 10 11  2  0     0  0
  8 12  2  0     0  0
 10 13  1  0     0  0
  4 14  1  0     0  0
  3 15  1  0     0  0
 15 16  2  0     0  0
 15 17  1  0     0  0
 13 18  2  0     0  0
  1 19  1  6     0  0
 14 20  1  0     0  0
 20 21  1  0     0  0
 18 22  1  0     0  0
 24 23  2  0     0  0
 25 23  1  0     0  0
 26 24  1  0     0  0
 27 25  2  0     0  0
 27 26  1  0     0  0
 13 23  1  0     0  0
 27 28  1  0     0  0
M  END
> <ID>
CHEBI:140109

> <NAME>
cefdaloxime

> <DEFINITION>
A cephalosporin compound having methoxymethyl and [(2Z)-2-(2-amino-1,3-thiazol-4-yl)-2-(hydroxyimino)acetyl]amino side-groups; a third-generation cephalosporin antibiotic.

> <STAR>
3

> <SYNONYM>
(6R,7R)-7-{[(2Z)-2-(2-amino-1,3-thiazol-4-yl)-2-(hydroxyimino)acetyl]amino}-3-(methoxymethyl)-8-oxo-5-thia-1-azabicyclo[4.2.0]oct-2-ene-2-carboxylic acid

> <IUPAC_NAME>
3-(methoxymethyl)-7beta-{[(2Z)-2-(2-amino-1,3-thiazol-4-yl)-2-(hydroxyimino)acetyl]amino}-3,4-didehydrocepham-4-carboxylate

> <INN>
cefdaloximum; cefdaloxime; cefdaloxima

> <FORMULA>
C14H15N5O6S2

> <MASS>
413.432

> <MONOISOTOPIC_MASS>
413.04638

> <CHARGE>
0

> <SMILES>
[C@]12(N(C(=C(CS1)COC)C(=O)O)C([C@H]2NC(=O)/C(=N\O)/C3=CSC(=N3)N)=O)[H]

> <INCHI>
InChI=1S/C14H15N5O6S2/c1-25-2-5-3-26-12-8(11(21)19(12)9(5)13(22)23)17-10(20)7(18-24)6-4-27-14(15)16-6/h4,8,12,24H,2-3H2,1H3,(H2,15,16)(H,17,20)(H,22,23)/b18-7-/t8-,12-/m1/s1

> <INCHIKEY>
HOGISBSFFHDTRM-GHXIOONMSA-N

> <CAS_REGISTRY_NUMBER>
80195-36-4

> <REAXYS_REGISTRY_NUMBER>
7608234

> <CHEMIDPLUS>
80195-36-4

> <WIKIPEDIA_ACCESSION>
Cefdaloxime

> <PUBMED_CENTRAL_CITATION>
PMC263080

> <PUBMED_CITATION>
1478050; 1583135; 29017833; 8150978

$$$$

Ketcher 03121815012D 1   1.00000     0.00000     0

 39 43  0     1  0            999 V2000
   13.8612  -55.3843    0.0000 C   0  0  0  0  0  0  0  0  0  0  0  0
   12.9951  -54.8842    0.0000 N   0  0  0  0  0  0  0  0  0  0  0  0
   12.9951  -53.8843    0.0000 C   0  0  0  0  0  0  0  0  0  0  0  0
   13.8612  -53.3843    0.0000 S   0  0  0  0  0  0  0  0  0  0  0  0
   14.7271  -53.8843    0.0000 C   0  0  0  0  0  0  0  0  0  0  0  0
   14.7271  -54.8842    0.0000 C   0  0  0  0  0  0  0  0  0  0  0  0
   11.9952  -53.8843    0.0000 C   0  0  0  0  0  0  0  0  0  0  0  0
   11.9952  -54.8842    0.0000 C   0  0  0  0  0  0  0  0  0  0  0  0
   11.2880  -55.5914    0.0000 O   0  0  0  0  0  0  0  0  0  0  0  0
   13.8612  -56.3843    0.0000 C   0  0  0  0  0  0  0  0  0  0  0  0
   14.7271  -56.8843    0.0000 O   0  0  0  0  0  0  0  0  0  0  0  0
   12.9951  -56.8843    0.0000 O   0  0  0  0  0  0  0  0  0  0  0  0
   15.5932  -55.3843    0.0000 C   0  0  0  0  0  0  0  0  0  0  0  0
   16.4593  -54.8842    0.0000 C   0  0  0  0  0  0  0  0  0  0  0  0
   16.5637  -53.8897    0.0000 C   0  0  0  0  0  0  0  0  0  0  0  0
   17.5420  -53.6819    0.0000 C   0  0  0  0  0  0  0  0  0  0  0  0
   18.0420  -54.5479    0.0000 N   0  0  0  0  0  0  0  0  0  0  0  0
   17.3729  -55.2909    0.0000 C   0  0  0  0  0  0  0  0  0  0  0  0
   17.5808  -56.2691    0.0000 O   0  0  0  0  0  0  0  0  0  0  0  0
   19.0364  -54.6524    0.0000 C   0  0  0  0  0  0  0  0  0  0  0  0
   19.7056  -53.9092    0.0000 C   0  0  0  0  0  0  0  0  0  0  0  0
   20.6191  -54.3159    0.0000 N   0  0  0  0  0  0  0  0  0  0  0  0
   20.5145  -55.3104    0.0000 C   0  0  0  0  0  0  0  0  0  0  0  0
   19.5365  -55.5185    0.0000 C   0  0  0  0  0  0  0  0  0  0  0  0
   18.5364  -53.7863    0.0000 H   0  0  0  0  0  0  0  0  0  0  0  0
   11.1291  -53.3843    0.0000 N   0  0  0  0  0  0  0  0  0  0  0  0
   10.2631  -53.8843    0.0000 C   0  0  0  0  0  0  0  0  0  0  0  0
    9.3971  -53.3843    0.0000 C   0  0  0  0  0  0  0  0  0  0  0  0
   10.2631  -54.8842    0.0000 O   0  0  0  0  0  0  0  0  0  0  0  0
    8.5310  -53.8843    0.0000 C   0  0  0  0  0  0  0  0  0  0  0  0
    9.3971  -52.3842    0.0000 N   0  0  0  0  0  0  0  0  0  0  0  0
   10.2631  -51.8843    0.0000 O   0  0  0  0  0  0  0  0  0  0  0  0
    8.4265  -54.8788    0.0000 N   0  0  0  0  0  0  0  0  0  0  0  0
    7.4483  -55.0867    0.0000 S   0  0  0  0  0  0  0  0  0  0  0  0
    6.9484  -54.2206    0.0000 C   0  0  0  0  0  0  0  0  0  0  0  0
    7.6174  -53.4776    0.0000 N   0  0  0  0  0  0  0  0  0  0  0  0
    5.9539  -54.1162    0.0000 N   0  0  0  0  0  0  0  0  0  0  0  0
   12.9951  -52.8842    0.0000 H   0  0  0  0  0  0  0  0  0  0  0  0
   11.9952  -52.8842    0.0000 H   0  0  0  0  0  0  0  0  0  0  0  0
  1  2  1  0     0  0
  1  6  2  0     0  0
  2  3  1  0     0  0
  3  4  1  0     0  0
  4  5  1  0     0  0
  5  6  1  0     0  0
  7  8  1  0     0  0
  8  2  1  0     0  0
  3  7  1  0     0  0
  8  9  2  0     0  0
  1 10  1  0     0  0
 10 11  1  0     0  0
 10 12  2  0     0  0
  6 13  1  0     0  0
 13 14  2  0     0  0
 15 16  1  0     0  0
 16 17  1  0     0  0
 17 18  1  0     0  0
 14 15  1  0     0  0
 14 18  1  0     0  0
 18 19  2  0     0  0
 20 17  1  1     0  0
 21 22  1  0     0  0
 22 23  1  0     0  0
 23 24  1  0     0  0
 20 21  1  0     0  0
 20 24  1  0     0  0
 20 25  1  6     0  0
  7 26  1  1     0  0
 26 27  1  0     0  0
 27 28  1  0     0  0
 27 29  2  0     0  0
 28 30  1  0     0  0
 28 31  2  0     0  0
 31 32  1  0     0  0
 33 34  1  0     0  0
 34 35  1  0     0  0
 35 36  2  0     0  0
 30 33  2  0     0  0
 30 36  1  0     0  0
 35 37  1  0     0  0
  3 38  1  6     0  0
  7 39  1  6     0  0
M  END
> <ID>
CHEBI:140407

> <NAME>
ceftobiprole

> <DEFINITION>
A fifth-generation cephalosporin antibiotic having (E)-[(3'R)-2-oxo[1,3'-bipyrrolidin]-3-ylidene]methyl and [(2Z)-2-(5-amino-1,2,4-thiadiazol-3-yl)-2-(hydroxyimino)acetyl]amino side groups located at positions 3 and 7 respectively; developed for the treatment of hospital-acquired pneumonia (HAP, excluding ventilator-associated pneumonia, VAP) and community-acquired pneumonia (CAP).

> <STAR>
3

> <SYNONYM>
(6R,7R)-7-{[(2Z)-2-(5-amino-1,2,4-thiadiazol-3-yl)-2-(hydroxyimino)acetyl]amino}-8-oxo-3-{(E)-[(3'R)-2-oxo[1,3'-bipyrrolidin]-3-ylidene]methyl}-5-thia-1-azabicyclo[4.2.0]oct-2-ene-2-carboxylic acid

> <IUPAC_NAME>
7-{[(2Z)-2-(5-amino-1,2,4-thiadiazol-3-yl)-2-(hydroxyimino)acetyl]amino}-3-{(E)-[(3'R)-2-oxo[1,3'-bipyrrolidin]-3-ylidene]methyl}-3,4-didehydrocepham-4-carboxylic acid

> <INN>
ceftobiprolum; ceftobiprole; ceftobiprole; ceftobiprol

> <FORMULA>
C20H22N8O6S2

> <MASS>
534.572

> <MONOISOTOPIC_MASS>
534.11037

> <CHARGE>
0

> <SMILES>
C=1(N2[C@](SCC1/C=C/3\CCN(C3=O)[C@]4(CNCC4)[H])([C@@](C2=O)(NC(/C(/C5=NSC(=N5)N)=N\O)=O)[H])[H])C(O)=O

> <INCHI>
InChI=1S/C20H22N8O6S2/c21-20-24-14(26-36-20)11(25-34)15(29)23-12-17(31)28-13(19(32)33)9(7-35-18(12)28)5-8-2-4-27(16(8)30)10-1-3-22-6-10/h5,10,12,18,22,34H,1-4,6-7H2,(H,23,29)(H,32,33)(H2,21,24,26)/b8-5+,25-11-/t10-,12-,18-/m1/s1

> <INCHIKEY>
VOAZJEPQLGBXGO-SDAWRPRTSA-N

> <CAS_REGISTRY_NUMBER>
209467-52-7

> <REAXYS_REGISTRY_NUMBER>
9105776

> <CHEMIDPLUS>
209467-52-7

> <KEGG_DRUG_ACCESSION>
D08885

> <PUBMED_CENTRAL_CITATION>
PMC5631058

> <PUBMED_CITATION>
25753637; 26316697; 26443816; 28264613; 29017833; 29395713; 29452992

$$$$

Ketcher 03191813132D 1   1.00000     0.00000     0

 16 16  0     1  0            999 V2000
   19.2381   -7.4578    0.0000 C   0  0  0  0  0  0  0  0  0  0  0  0
   19.2381   -8.4578    0.0000 C   0  0  0  0  0  0  0  0  0  0  0  0
   18.3720   -6.9578    0.0000 O   0  0  0  0  0  0  0  0  0  0  0  0
   18.3720   -8.9578    0.0000 C   0  0  0  0  0  0  0  0  0  0  0  0
   17.5060   -7.4578    0.0000 C   0  0  0  0  0  0  0  0  0  0  0  0
   17.5060   -8.4578    0.0000 C   0  0  0  0  0  0  0  0  0  0  0  0
   20.1041   -6.9578    0.0000 O   0  0  0  0  0  0  0  0  0  0  0  0
   20.1041   -8.9578    0.0000 O   0  0  0  0  0  0  0  0  0  0  0  0
   18.3720   -9.9578    0.0000 O   0  0  0  0  0  0  0  0  0  0  0  0
   16.6400   -8.9578    0.0000 O   0  0  0  0  0  0  0  0  0  0  0  0
   20.9701   -7.4578    0.0000 C   0  0  0  0  0  0  0  0  0  0  0  0
   21.8362   -6.9578    0.0000 C   0  0  0  0  0  0  0  0  0  0  0  0
   22.7021   -7.4578    0.0000 C   0  0  0  0  0  0  0  0  0  0  0  0
   23.5681   -6.9578    0.0000 C   0  0  0  0  0  0  0  0  0  0  0  0
   24.4342   -7.4578    0.0000 N   0  0  0  0  0  0  0  0  0  0  0  0
   16.6400   -6.9578    0.0000 C   0  0  0  0  0  0  0  0  0  0  0  0
  1  2  1  0     0  0
  1  3  1  0     0  0
  2  4  1  0     0  0
  3  5  1  0     0  0
  4  6  1  0     0  0
  5  6  1  0     0  0
  1  7  1  1     0  0
  2  8  1  1     0  0
  4  9  1  6     0  0
  6 10  1  6     0  0
 11  7  1  0     0  0
 12 11  1  0     0  0
 13 12  1  0     0  0
 14 13  1  0     0  0
 15 14  1  0     0  0
  5 16  1  6     0  0
M  END
> <ID>
CHEBI:140447

> <NAME>
4-aminobutyl alpha-L-fucopyranoside

> <DEFINITION>
A glycoside that is α-L-fucose in which the hydrogen of the anomeric hydroxy group is replaced by a 4-aminobutyl group. A synthetic version of the α-fucosyl glycoside (AFG) epitope from the major peanut allergen glycoprotein Arachis hypogaea h2 (Ara-h2).

> <STAR>
3

> <SYNONYM>
AFG; 4-aminobutyl 6-deoxy-alpha-L-galactopyranoside

> <IUPAC_NAME>
4-aminobutyl alpha-L-fucopyranoside

> <FORMULA>
C10H21NO5

> <MASS>
235.278

> <MONOISOTOPIC_MASS>
235.14197

> <CHARGE>
0

> <SMILES>
[C@@H]1([C@H]([C@@H]([C@@H]([C@@H](O1)C)O)O)O)OCCCCN

> <INCHI>
InChI=1S/C10H21NO5/c1-6-7(12)8(13)9(14)10(16-6)15-5-3-2-4-11/h6-10,12-14H,2-5,11H2,1H3/t6-,7+,8+,9-,10+/m0/s1

> <INCHIKEY>
HJVUQIHMNQMRIV-LOLPMWEVSA-N

> <PUBMED_CITATION>
29232483

$$$$

Ketcher 04181818352D 1   1.00000     0.00000     0

 23 23  0     0  0            999 V2000
   12.0098  -10.4275    0.0000 C   0  0  0  0  0  0  0  0  0  0  0  0
   12.0098  -11.4318    0.0000 C   0  0  0  0  0  0  0  0  0  0  0  0
   12.8782  -11.9392    0.0000 C   0  0  0  0  0  0  0  0  0  0  0  0
   13.7416  -11.4318    0.0000 C   0  0  0  0  0  0  0  0  0  0  0  0
   13.7416  -10.4275    0.0000 C   0  0  0  0  0  0  0  0  0  0  0  0
   12.8782   -9.9303    0.0000 C   0  0  0  0  0  0  0  0  0  0  0  0
   12.8794   -8.9257    0.0000 O   0  0  0  0  0  0  0  0  0  0  0  0
   14.6131   -9.9309    0.0000 O   0  0  0  0  0  0  0  0  0  0  0  0
   14.6015  -11.9293    0.0000 C   0  0  0  0  0  0  0  0  0  0  0  0
   15.4654  -11.4270    0.0000 C   0  0  0  0  0  0  0  0  0  0  0  0
   16.3293  -11.9293    0.0000 C   0  0  0  0  0  0  0  0  0  0  0  0
   17.1931  -11.4270    0.0000 C   0  0  0  0  0  0  0  0  0  0  0  0
   18.0570  -11.9293    0.0000 C   0  0  0  0  0  0  0  0  0  0  0  0
   18.9210  -11.4270    0.0000 C   0  0  0  0  0  0  0  0  0  0  0  0
   19.7798  -11.9293    0.0000 C   0  0  0  0  0  0  0  0  0  0  0  0
   20.6437  -11.4270    0.0000 C   0  0  0  0  0  0  0  0  0  0  0  0
   21.6431  -11.4270    0.0000 C   0  0  0  0  0  0  0  0  0  0  0  0
   22.5069  -11.9293    0.0000 C   0  0  0  0  0  0  0  0  0  0  0  0
   23.3708  -11.4270    0.0000 C   0  0  0  0  0  0  0  0  0  0  0  0
   24.3702  -11.4270    0.0000 C   0  0  0  0  0  0  0  0  0  0  0  0
   25.2341  -11.9293    0.0000 C   0  0  0  0  0  0  0  0  0  0  0  0
   26.0979  -11.4270    0.0000 C   0  0  0  0  0  0  0  0  0  0  0  0
   26.9619  -11.9293    0.0000 C   0  0  0  0  0  0  0  0  0  0  0  0
  6  7  1  0     0  0
 11 12  1  0     0  0
  1  2  2  0     0  0
 12 13  1  0     0  0
  5  8  1  0     0  0
 13 14  1  0     0  0
  2  3  1  0     0  0
 14 15  1  0     0  0
  3  4  2  0     0  0
 15 16  1  0     0  0
  4  5  1  0     0  0
  4  9  1  0     0  0
  5  6  2  0     0  0
  9 10  1  0     0  0
  6  1  1  0     0  0
 10 11  1  0     0  0
 16 17  2  0     0  0
 17 18  1  0     0  0
 18 19  1  0     0  0
 19 20  2  0     0  0
 21 22  1  0     0  0
 22 23  1  0     0  0
 20 21  1  0     0  0
M  END
> <ID>
CHEBI:140612

> <NAME>
(8Z,11Z)-urushiol III

> <DEFINITION>
Catechol substituted at position 3 with an (8Z,11Z)-pentadeca-8,11-dien-1-yl group. Stereoisomer of urushiol III (CHEBI:9909) which has (8E,11E) configuration.

> <STAR>
3

> <SYNONYM>
urushiol III; urushiol (C15:2)

> <IUPAC_NAME>
3-[(8Z,11Z)-pentadeca-8,11-dien-1-yl]benzene-1,2-diol

> <FORMULA>
C21H32O2

> <MASS>
316.478

> <MONOISOTOPIC_MASS>
316.24023

> <CHARGE>
0

> <SMILES>
C1=CC=C(C(O)=C1O)CCCCCCC/C=C\C/C=C\CCC

> <INCHI>
InChI=1S/C21H32O2/c1-2-3-4-5-6-7-8-9-10-11-12-13-14-16-19-17-15-18-20(22)21(19)23/h4-5,7-8,15,17-18,22-23H,2-3,6,9-14,16H2,1H3/b5-4-,8-7-

> <INCHIKEY>
RMTXUPIIESNLPW-UTOQUPLUSA-N

> <CAS_REGISTRY_NUMBER>
83258-37-1

> <CHEMIDPLUS>
83258-37-1

> <PDB_ACCESSION>
5J1A

> <PDBECHEM_ACCESSION>
6F8

> <PUBMED_CITATION>
12530478; 27548435

$$$$

Ketcher 07231916212D 1   1.00000     0.00000     0

 16 17  0     0  0            999 V2000
   11.5395   -8.1692    0.0000 C   0  0  0  0  0  0  0  0  0  0  0  0
   11.5395   -7.1685    0.0000 N   0  0  0  0  0  0  0  0  0  0  0  0
   12.4043   -8.6665    0.0000 N   0  0  0  0  0  0  0  0  0  0  0  0
   10.6746   -8.6726    0.0000 N   0  0  0  0  0  0  0  0  0  0  0  0
    8.9449   -6.6774    0.0000 C   0  0  0  0  0  0  0  0  0  0  0  0
    8.0800   -7.1807    0.0000 C   0  0  0  0  0  0  0  0  0  0  0  0
    8.0800   -8.1815    0.0000 C   0  0  0  0  0  0  0  0  0  0  0  0
    8.9449   -8.6787    0.0000 C   0  0  0  0  0  0  0  0  0  0  0  0
    9.8098   -8.1754    0.0000 C   0  0  0  0  0  0  0  0  0  0  0  0
    9.8098   -7.1746    0.0000 C   0  0  0  0  0  0  0  0  0  0  0  0
   13.2703   -8.1665    0.0000 C   0  0  0  0  0  0  0  0  0  0  0  0
   13.2703   -7.1665    0.0000 C   0  0  0  0  0  0  0  0  0  0  0  0
   14.1364   -6.6665    0.0000 C   0  0  0  0  0  0  0  0  0  0  0  0
   15.0024   -7.1665    0.0000 C   0  0  0  0  0  0  0  0  0  0  0  0
   15.0024   -8.1665    0.0000 C   0  0  0  0  0  0  0  0  0  0  0  0
   14.1364   -8.6665    0.0000 C   0  0  0  0  0  0  0  0  0  0  0  0
  2  1  2  0     0  0
  3  1  1  0     0  0
  4  1  1  0     0  0
  9  4  1  0     0  0
 10  5  2  0     0  0
  6  5  1  0     0  0
  7  6  2  0     0  0
  8  7  1  0     0  0
  9  8  2  0     0  0
 10  9  1  0     0  0
  3 11  1  0     0  0
 11 12  1  0     0  0
 12 13  2  0     0  0
 13 14  1  0     0  0
 14 15  2  0     0  0
 15 16  1  0     0  0
 16 11  2  0     0  0
M  END
> <ID>
CHEBI:144319

> <NAME>
1,3-diphenylguanidine

> <DEFINITION>
Guanidine carrying a phenyl substituent on each of the two amino groups. It is used as an accelerator in the rubber industry.

> <STAR>
3

> <SYNONYM>
s-Diphenylguanidine; 1,3-Diphenylguanidine

> <IUPAC_NAME>
N,N'-diphenylguanidine

> <FORMULA>
C13H13N3

> <MASS>
211.268

> <MONOISOTOPIC_MASS>
211.11095

> <CHARGE>
0

> <SMILES>
C(=N)(NC=1C=CC=CC1)NC2=CC=CC=C2

> <INCHI>
InChI=1S/C13H13N3/c14-13(15-11-7-3-1-4-8-11)16-12-9-5-2-6-10-12/h1-10H,(H3,14,15,16)

> <INCHIKEY>
OWRCNXZUPFZXOS-UHFFFAOYSA-N

> <CAS_REGISTRY_NUMBER>
102-06-7

> <CHEMIDPLUS>
102-06-7

> <PUBMED_CITATION>
30891769; 6693001

$$$$

Ketcher 04092011562D 1   1.00000     0.00000     0

 25 29  0     1  0            999 V2000
   40.3023  -77.6705    0.0000 C   0  0  0  0  0  0  0  0  0  0  0  0
   41.2494  -77.9862    0.0000 C   0  0  0  0  0  0  0  0  0  0  0  0
   41.8457  -77.1794    0.0000 C   0  0  0  0  0  0  0  0  0  0  0  0
   41.2494  -76.3726    0.0000 C   0  0  0  0  0  0  0  0  0  0  0  0
   40.3023  -76.6883    0.0000 C   0  0  0  0  0  0  0  0  0  0  0  0
   39.4956  -78.2668    0.0000 C   0  0  0  0  0  0  0  0  0  0  0  0
   38.5835  -77.8459    0.0000 O   0  0  0  0  0  0  0  0  0  0  0  0
   42.5122  -75.1098    0.0000 C   0  0  0  0  0  0  0  0  0  0  0  0
   42.5122  -74.1276    0.0000 C   0  0  0  0  0  0  0  0  0  0  0  0
   41.5651  -73.8120    0.0000 N   0  0  0  0  0  0  0  0  0  0  0  0
   41.5651  -75.4255    0.0000 N   0  0  0  0  0  0  0  0  0  0  0  0
   40.9688  -74.6188    0.0000 C   0  0  0  0  0  0  0  0  0  0  0  0
   43.3891  -75.6009    0.0000 N   0  0  0  0  0  0  0  0  0  0  0  0
   44.2661  -74.1276    0.0000 N   0  0  0  0  0  0  0  0  0  0  0  0
   44.2661  -75.1098    0.0000 C   0  0  0  0  0  0  0  0  0  0  0  0
   43.3891  -73.6015    0.0000 C   0  0  0  0  0  0  0  0  0  0  0  0
   45.1079  -75.6009    0.0000 N   0  0  0  0  0  0  0  0  0  0  0  0
   43.3891  -72.6193    0.0000 N   0  0  0  0  0  0  0  0  0  0  0  0
   43.3891  -71.2005    0.0000 C   0  0  0  0  0  0  0  0  0  0  0  0
   44.0985  -71.9100    0.0000 C   0  0  0  0  0  0  0  0  0  0  0  0
   42.6798  -71.9100    0.0000 C   0  0  0  0  0  0  0  0  0  0  0  0
   44.2581  -70.6989    0.0000 C   0  0  0  0  0  0  0  0  0  0  0  0
   42.5204  -70.6989    0.0000 F   0  0  0  0  0  0  0  0  0  0  0  0
   44.7597  -69.8301    0.0000 C   0  0  0  0  0  0  0  0  0  0  0  0
   45.2613  -70.6989    0.0000 C   0  0  0  0  0  0  0  0  0  0  0  0
  1  2  1  0     0  0
  1  5  1  0     0  0
  1  6  1  1     0  0
  2  3  2  0     0  0
  3  4  1  0     0  0
  4  5  1  0     0  0
  4 11  1  1     0  0
  6  7  1  0     0  0
  8  9  1  0     0  0
  8 11  1  0     0  0
  8 13  2  0     0  0
  9 10  1  0     0  0
  9 16  2  0     0  0
 10 12  2  0     0  0
 11 12  1  0     0  0
 13 15  1  0     0  0
 14 15  2  0     0  0
 14 16  1  0     0  0
 15 17  1  0     0  0
 16 18  1  0     0  0
 19 20  1  0     0  0
 19 21  1  0     0  0
 18 21  1  0     0  0
 18 20  1  0     0  0
 22 19  1  0     0  0
 19 23  1  0     0  0
 24 25  1  0     0  0
 24 22  1  0     0  0
 25 22  1  0     0  0
M  END
> <ID>
CHEBI:149436

> <NAME>
6-de(cyclopropylamino)-6-(3-cyclopropyl-3-fluoroazetidin-1-yl)abacavir

> <DEFINITION>
A 2,6-diaminopurine that is an analogue of abacavir in which the cyclopropylamino group at position 6 of the purine moiety is replaced by a 3-cyclopropyl-3-fluoroazetidin-1-yl group. One of a series of synthesised abacavir analogues with antiviral activity found to stimulate IFN-γ secretion in abacavir-responsive clones.

> <STAR>
3

> <SYNONYM>
(1S,4R)-4-[2-amino-6-(3-cyclopropyl-3-fluoro-1-azetidinyl)-9H-purin-9-yl]-2-cyclopentene-1-methanol

> <IUPAC_NAME>
{(1S,4R)-4-[2-amino-6-(3-cyclopropyl-3-fluoroazetidin-1-yl)-9H-purin-9-yl]cyclopent-2-en-1-yl}methanol

> <FORMULA>
C17H21FN6O

> <MASS>
344.394

> <MONOISOTOPIC_MASS>
344.17609

> <CHARGE>
0

> <SMILES>
[C@H]1(C=C[C@@H](C1)N2C=3C(N=C2)=C(N=C(N3)N)N4CC(C4)(C5CC5)F)CO

> <INCHI>
InChI=1S/C17H21FN6O/c18-17(11-2-3-11)7-23(8-17)14-13-15(22-16(19)21-14)24(9-20-13)12-4-1-10(5-12)6-25/h1,4,9-12,25H,2-3,5-8H2,(H2,19,21,22)/t10-,12+/m1/s1

> <INCHIKEY>
PVCSYQLWBAGPTF-PWSUYJOCSA-N

> <PUBMED_CITATION>
31549414

$$$$

Marvin  05061110022D          

  7  6  0  0  0  0            999 V2000
   16.8144  -14.6439    0.0000 N   0  3  0  0  0  0  0  0  0  0  0  0
   17.5290  -15.0564    0.0000 C   0  0  0  0  0  0  0  0  0  0  0  0
   18.2434  -14.6439    0.0000 C   0  0  0  0  0  0  0  0  0  0  0  0
   18.9580  -15.0564    0.0000 O   0  0  0  0  0  0  0  0  0  0  0  0
   16.1000  -15.0565    0.0000 C   0  0  0  0  0  0  0  0  0  0  0  0
   16.8143  -13.8189    0.0000 C   0  0  0  0  0  0  0  0  0  0  0  0
   16.0999  -14.2314    0.0000 C   0  0  0  0  0  0  0  0  0  0  0  0
  1  2  1  0  0  0  0
  2  3  1  0  0  0  0
  3  4  1  0  0  0  0
  1  5  1  0  0  0  0
  1  6  1  0  0  0  0
  1  7  1  0  0  0  0
M  CHG  1   1   1
M  END
> <ID>
CHEBI:15354

> <NAME>
choline

> <DEFINITION>
A choline that is the parent compound of the cholines class, consisting of ethanolamine having three methyl substituents attached to the amino function.

> <STAR>
3

> <SECONDARY_ID>
CHEBI:41524; CHEBI:3665; CHEBI:13985; CHEBI:23212

> <SYNONYM>
trimethylethanolamine; N-trimethylethanolamine; N,N,N-trimethylethanol-ammonium; CHOLINE ION; choline; Choline; Bilineurine

> <IUPAC_NAME>
2-hydroxy-N,N,N-trimethylethanaminium

> <FORMULA>
C5H14NO

> <MASS>
104.17080

> <MONOISOTOPIC_MASS>
104.10699

> <CHARGE>
1

> <SMILES>
C[N+](C)(C)CCO

> <INCHI>
InChI=1S/C5H14NO/c1-6(2,3)4-5-7/h7H,4-5H2,1-3H3/q+1

> <INCHIKEY>
OEYIOHPDSNJKLS-UHFFFAOYSA-N

> <BEILSTEIN_REGISTRY_NUMBER>
1736748

> <CAS_REGISTRY_NUMBER>
62-49-7

> <GMELIN_REGISTRY_NUMBER>
324597

> <REAXYS_REGISTRY_NUMBER>
1736748

> <CHEMIDPLUS>
62-49-7

> <DRUGBANK_ACCESSION>
DB00122

> <ECMDB_ACCESSION>
ECMDB00097

> <HMDB_ACCESSION>
HMDB0000097

> <KEGG_COMPOUND_ACCESSION>
C00114

> <KEGG_DRUG_ACCESSION>
D07690

> <KNAPSACK_ACCESSION>
C00007298

> <METACYC_ACCESSION>
CHOLINE

> <PDBECHEM_ACCESSION>
CHT

> <WIKIPEDIA_ACCESSION>
Choline

> <YMDB_ACCESSION>
YMDB00227

> <PUBMED_CITATION>
10930630; 12826235; 12946691; 14972364; 16210714; 17087106; 17283071; 17344490; 18204095; 18230680; 18786517; 18786520; 19246089; 20038853; 20446114; 22770225; 22961562; 23095202; 23616508; 23637565; 23733158; 6420466; 7590654; 9517478

$$$$

Marvin  12270700542D          

 13 13  0  0  0  0            999 V2000
   -0.7145   -0.4125    0.0000 C   0  0  0  0  0  0  0  0  0  0  0  0
    0.0000   -0.8250    0.0000 C   0  0  0  0  0  0  0  0  0  0  0  0
   -0.7145    0.4125    0.0000 C   0  0  0  0  0  0  0  0  0  0  0  0
    0.7145    0.4125    0.0000 C   0  0  0  0  0  0  0  0  0  0  0  0
    0.0000    0.8250    0.0000 C   0  0  0  0  0  0  0  0  0  0  0  0
    0.7145   -0.4125    0.0000 C   0  0  0  0  0  0  0  0  0  0  0  0
    1.4289    0.8250    0.0000 C   0  0  0  0  0  0  0  0  0  0  0  0
    2.1433    0.4126    0.0000 O   0  0  0  0  0  0  0  0  0  0  0  0
    1.4289    1.6501    0.0000 O   0  0  0  0  0  0  0  0  0  0  0  0
   -0.0002    1.6500    0.0000 O   0  0  0  0  0  0  0  0  0  0  0  0
   -0.7145    2.0625    0.0000 C   0  0  0  0  0  0  0  0  0  0  0  0
   -1.4290    1.6500    0.0000 C   0  0  0  0  0  0  0  0  0  0  0  0
   -0.7145    2.8875    0.0000 O   0  0  0  0  0  0  0  0  0  0  0  0
  2  1  1  0  0  0  0
  3  1  2  0  0  0  0
  4  7  1  0  0  0  0
  5  3  1  0  0  0  0
  4  5  2  0  0  0  0
 10  5  1  0  0  0  0
  6  4  1  0  0  0  0
  2  6  2  0  0  0  0
  8  7  1  0  0  0  0
  9  7  2  0  0  0  0
 11 10  1  0  0  0  0
 12 11  1  0  0  0  0
 13 11  2  0  0  0  0
M  END
> <ID>
CHEBI:15365

> <NAME>
acetylsalicylic acid

> <DEFINITION>
A member of the class of benzoic acids that is salicylic acid in which the hydrogen that is attached to the phenolic hydroxy group has been replaced by an acetoxy group. A non-steroidal anti-inflammatory drug with cyclooxygenase inhibitor activity.

> <STAR>
3

> <SECONDARY_ID>
CHEBI:2890; CHEBI:40705; CHEBI:71414; CHEBI:22188; CHEBI:22203

> <SYNONYM>
salicylic acid acetate; o-carboxyphenyl acetate; O-acetylsalicylic acid; o-acetoxybenzoic acid; Azetylsalizylsaeure; Aspirin; ASA; acide 2-(acetyloxy)benzoique; Acetylsalicylsaeure; Acetylsalicylic acid; Acetylsalicylate; 2-acetoxybenzoic acid; 2-Acetoxybenzenecarboxylic acid; 2-(ACETYLOXY)BENZOIC ACID

> <IUPAC_NAME>
2-(acetyloxy)benzoic acid

> <INN>
acidum acetylsalicylicum; acido acetilsalicilico; acide acetylsalicylique

> <BRAND_NAME>
Easprin

> <FORMULA>
C9H8O4

> <MASS>
180.15740

> <MONOISOTOPIC_MASS>
180.04226

> <CHARGE>
0

> <SMILES>
CC(=O)Oc1ccccc1C(O)=O

> <INCHI>
InChI=1S/C9H8O4/c1-6(10)13-8-5-3-2-4-7(8)9(11)12/h2-5H,1H3,(H,11,12)

> <INCHIKEY>
BSYNRYMUTXBXSQ-UHFFFAOYSA-N

> <BEILSTEIN_REGISTRY_NUMBER>
779271

> <CAS_REGISTRY_NUMBER>
50-78-2

> <GMELIN_REGISTRY_NUMBER>
218864

> <REAXYS_REGISTRY_NUMBER>
779271

> <CHEMIDPLUS>
50-78-2

> <DRUGBANK_ACCESSION>
DB00945

> <HMDB_ACCESSION>
HMDB0001879

> <KEGG_COMPOUND_ACCESSION>
C01405

> <KEGG_DRUG_ACCESSION>
D00109

> <LINCS_ACCESSION>
LSM-5288

> <METACYC_ACCESSION>
CPD-524

> <NIST_CHEMISTRY_WEBBOOK>
50-78-2

> <PDBECHEM_ACCESSION>
AIN

> <WIKIPEDIA_ACCESSION>
Aspirin

> <PUBMED_CITATION>
11203441; 11402787; 11597554; 11733186; 12852484; 14753751; 15542410; 15590729; 1650428; 18226435; 18335236; 19010312; 19386367; 19706045; 21699808; 22866967; 445303

$$$$

Marvin  10280816072D          

 11 11  0  0  1  0            999 V2000
    0.0000    1.2375    0.0000 C   0  0  0  0  0  0  0  0  0  0  0  0
   -0.7145    0.8250    0.0000 C   0  0  0  0  0  0  0  0  0  0  0  0
   -0.7145    0.0000    0.0000 C   0  0  0  0  0  0  0  0  0  0  0  0
    0.7145    0.0000    0.0000 C   0  0  0  0  0  0  0  0  0  0  0  0
    0.0000   -1.2375    0.0000 C   0  0  0  0  0  0  0  0  0  0  0  0
    0.7145   -1.6500    0.0000 C   0  0  0  0  0  0  0  0  0  0  0  0
   -0.7145   -1.6500    0.0000 C   0  0  0  0  0  0  0  0  0  0  0  0
    0.0000    2.0625    0.0000 C   0  0  0  0  0  0  0  0  0  0  0  0
    0.7145    0.8250    0.0000 C   0  0  0  0  0  0  0  0  0  0  0  0
    1.4290    1.2375    0.0000 O   0  0  0  0  0  0  0  0  0  0  0  0
    0.0000   -0.4125    0.0000 C   0  0  2  0  0  0  0  0  0  0  0  0
  1  9  1  0  0  0  0
  4  9  1  0  0  0  0
  2  1  2  0  0  0  0
  8  1  1  0  0  0  0
  3  2  1  0  0  0  0
 11  3  1  0  0  0  0
  4 11  1  0  0  0  0
 11  5  1  6  0  0  0
  6  5  1  0  0  0  0
  7  5  2  0  0  0  0
  9 10  2  0  0  0  0
M  END
> <ID>
CHEBI:15400

> <NAME>
(-)-carvone

> <DEFINITION>
A carvone having (R) configuration.

> <STAR>
3

> <SECONDARY_ID>
CHEBI:10775; CHEBI:18480; CHEBI:86

> <SYNONYM>
levo-carvone; l-p-mentha-1(6),8-dien-2-one; l-carvone; l-1-methyl-4-isopropenyl-6-cyclohexen-2-one; (R)-carvone; (R)-5-isopropenyl-2-methylcyclohex-2-en-1-one; (R)-2-methyl-5-(1-methylethenyl)-2-cyclohexen-1-one; (R)-(-)-carvone; (5R)-2-methyl-5-(1-methylethenyl)-2-cyclohexen-1-one; (4R)-Carvone; (-)-Carvone; (-)-p-mentha-6,8-dien-2-one; (-)-(R)-carvone; (-)-(4R)-carvone

> <IUPAC_NAME>
(5R)-2-methyl-5-(prop-1-en-2-yl)cyclohex-2-en-1-one; (4R)-p-mentha-1(6),8-dien-2-one

> <FORMULA>
C10H14O

> <MASS>
150.21756

> <MONOISOTOPIC_MASS>
150.10447

> <CHARGE>
0

> <SMILES>
CC(=C)[C@@H]1CC=C(C)C(=O)C1

> <INCHI>
InChI=1S/C10H14O/c1-7(2)9-5-4-8(3)10(11)6-9/h4,9H,1,5-6H2,2-3H3/t9-/m1/s1

> <INCHIKEY>
ULDHMXUKGWMISQ-SECBINFHSA-N

> <BEILSTEIN_REGISTRY_NUMBER>
3588497

> <CAS_REGISTRY_NUMBER>
6485-40-1

> <GMELIN_REGISTRY_NUMBER>
83213

> <REAXYS_REGISTRY_NUMBER>
2206714

> <CHEMIDPLUS>
6485-40-1

> <KEGG_COMPOUND_ACCESSION>
C01767

> <KNAPSACK_ACCESSION>
C00000807

> <LIPID_MAPS_INSTANCE_ACCESSION>
LMPR0102090007

> <NIST_CHEMISTRY_WEBBOOK>
6485-40-1

> <PUBMED_CITATION>
11380545

$$$$

Ketcher 07202016202D 1   1.00000     0.00000     0

 24 24  0     0  0            999 V2000
   11.6214   -8.0582    0.0000 C   0  0  0  0  0  0  0  0  0  0  0  0
   12.3021   -9.2863    0.0000 C   0  0  0  0  0  0  0  0  0  0  0  0
   12.5758   -8.3320    0.0000 N   0  0  0  0  0  0  0  0  0  0  0  0
   11.3478   -9.0126    0.0000 N   0  0  0  0  0  0  0  0  0  0  0  0
   11.1401   -7.1899    0.0000 O   0  0  0  0  0  0  0  0  0  0  0  0
   12.7834  -10.1546    0.0000 O   0  0  0  0  0  0  0  0  0  0  0  0
   13.4356   -7.8355    0.0000 C   0  0  0  0  0  0  0  0  0  0  0  0
   14.2954   -8.3320    0.0000 C   0  0  0  0  0  0  0  0  0  0  0  0
   15.1552   -7.8355    0.0000 C   0  0  0  0  0  0  0  0  0  0  0  0
   16.0150   -8.3320    0.0000 C   0  0  0  0  0  0  0  0  0  0  0  0
   16.8748   -7.8355    0.0000 C   0  0  0  0  0  0  0  0  0  0  0  0
   17.7346   -8.3320    0.0000 C   0  0  0  0  0  0  0  0  0  0  0  0
   18.5945   -7.7160    0.0000 N   0  0  0  0  0  0  0  0  0  0  0  0
    5.3291   -9.5090    0.0000 N   0  0  0  0  0  0  0  0  0  0  0  0
    6.1889   -9.0126    0.0000 C   0  0  0  0  0  0  0  0  0  0  0  0
    7.0488   -9.5090    0.0000 C   0  0  0  0  0  0  0  0  0  0  0  0
    7.9086   -9.0126    0.0000 C   0  0  0  0  0  0  0  0  0  0  0  0
    8.7684   -9.5090    0.0000 C   0  0  0  0  0  0  0  0  0  0  0  0
    9.6282   -9.0126    0.0000 C   0  0  0  0  0  0  0  0  0  0  0  0
   10.4880   -9.5090    0.0000 C   0  0  0  0  0  0  0  0  0  0  0  0
   19.4280   -8.1299    0.0000 C   0  0  0  0  0  0  0  0  0  0  0  0
   20.4021   -8.6595    0.0000 O   0  0  0  0  0  0  0  0  0  0  0  0
    4.4956   -9.0952    0.0000 C   0  0  0  0  0  0  0  0  0  0  0  0
    3.5215   -8.5655    0.0000 O   0  0  0  0  0  0  0  0  0  0  0  0
  1  3  1  0     0  0
  1  4  1  0     0  0
  2  4  1  0     0  0
  2  3  1  0     0  0
  1  5  2  0     0  0
  2  6  2  0     0  0
  7  3  1  0     0  0
  8  7  1  0     0  0
  9  8  1  0     0  0
 10  9  1  0     0  0
 11 10  1  0     0  0
 12 11  1  0     0  0
 13 12  1  0     0  0
 15 14  1  0     0  0
 16 15  1  0     0  0
 17 16  1  0     0  0
 18 17  1  0     0  0
 19 18  1  0     0  0
 20 19  1  0     0  0
  4 20  1  0     0  0
 13 21  2  0     0  0
 22 21  2  0     0  0
 14 23  2  0     0  0
 24 23  2  0     0  0
M  END
> <ID>
CHEBI:156221

> <NAME>
1,3-bis(6-isocyanatohexyl)-1,3-diazetidine-2,4-dione

> <DEFINITION>
A diisocyanate in which an isocyanatoheyl group is linked to each of the nitrogens in 1,3-diazetidine-2,4-dione.

> <STAR>
3

> <SYNONYM>
uretdione of hexamethylene diisocyanate; uretdione of HDI

> <IUPAC_NAME>
1,3-bis(6-isocyanatohexyl)-1,3-diazetidine-2,4-dione

> <FORMULA>
C16H24N4O4

> <MASS>
336.392

> <MONOISOTOPIC_MASS>
336.17976

> <CHARGE>
0

> <SMILES>
C1(N(C(N1CCCCCCN=C=O)=O)CCCCCCN=C=O)=O

> <INCHI>
InChI=1S/C16H24N4O4/c21-13-17-9-5-1-3-7-11-19-15(23)20(16(19)24)12-8-4-2-6-10-18-14-22/h1-12H2

> <INCHIKEY>
ZIZJPRKHEXCVLL-UHFFFAOYSA-N

> <PUBMED_CITATION>
32302507

$$$$
ChEBI
  Marvin  02181016462D          

 29 30  0  0  1  0            999 V2000
   15.0078   -9.7902    0.0000 N   0  0  0  0  0  0  0  0  0  0  0  0
   15.0078   -8.9638    0.0000 C   0  0  1  0  0  0  0  0  0  0  0  0
   15.7204  -10.2184    0.0000 C   0  0  0  0  0  0  0  0  0  0  0  0
   14.1816   -9.7902    0.0000 C   0  0  0  0  0  0  0  0  0  0  0  0
   14.1816   -8.9638    0.0000 C   0  0  1  0  0  0  0  0  0  0  0  0
   15.7204   -8.5508    0.0000 S   0  0  0  0  0  0  0  0  0  0  0  0
   16.4443   -9.7976    0.0000 C   0  0  0  0  0  0  0  0  0  0  0  0
   15.7128  -11.0446    0.0000 C   0  0  0  0  0  0  0  0  0  0  0  0
   13.5980  -10.3700    0.0000 O   0  0  0  0  0  0  0  0  0  0  0  0
   13.3456   -8.4394    0.0000 N   0  0  0  0  0  0  0  0  0  0  0  0
   16.4443   -8.9638    0.0000 C   0  0  0  0  0  0  0  0  0  0  0  0
   17.1568  -10.2071    0.0000 C   0  0  0  0  0  0  0  0  0  0  0  0
   14.9965  -11.4464    0.0000 O   0  0  0  0  0  0  0  0  0  0  0  0
   16.4254  -11.4578    0.0000 O   0  0  0  0  0  0  0  0  0  0  0  0
   17.8731   -9.7939    0.0000 O   0  0  0  0  0  0  0  0  0  0  0  0
   11.9167   -8.4330    0.0000 C   0  0  0  0  0  0  0  0  0  0  0  0
   18.5857  -10.2071    0.0000 C   0  0  0  0  0  0  0  0  0  0  0  0
   11.2004   -8.8423    0.0000 C   0  0  0  0  0  0  0  0  0  0  0  0
   19.2983   -9.7939    0.0000 C   0  0  0  0  0  0  0  0  0  0  0  0
   18.5896  -11.0294    0.0000 O   0  0  0  0  0  0  0  0  0  0  0  0
   10.4879   -8.4330    0.0000 C   0  0  0  0  0  0  0  0  0  0  0  0
    9.7753   -8.8423    0.0000 C   0  0  2  0  0  0  0  0  0  0  0  0
    9.0590   -8.4330    0.0000 C   0  0  0  0  0  0  0  0  0  0  0  0
    9.7753   -9.6685    0.0000 N   0  0  0  0  0  0  0  0  0  0  0  0
    8.3464   -8.8461    0.0000 O   0  0  0  0  0  0  0  0  0  0  0  0
    9.0627   -7.6067    0.0000 O   0  0  0  0  0  0  0  0  0  0  0  0
   15.0078   -8.1414    0.0000 H   0  0  0  0  0  0  0  0  0  0  0  0
   12.6293   -8.8487    0.0000 C   0  0  0  0  0  0  0  0  0  0  0  0
   12.6256   -9.6737    0.0000 O   0  0  0  0  0  0  0  0  0  0  0  0
  1  2  1  0  0  0  0
  1  3  1  0  0  0  0
  1  4  1  0  0  0  0
  2  5  1  0  0  0  0
  2  6  1  0  0  0  0
  3  7  2  0  0  0  0
  3  8  1  0  0  0  0
  4  9  2  0  0  0  0
  5 10  1  1  0  0  0
  6 11  1  0  0  0  0
  7 12  1  0  0  0  0
  8 13  1  0  0  0  0
  8 14  2  0  0  0  0
 12 15  1  0  0  0  0
 15 17  1  0  0  0  0
 16 18  1  0  0  0  0
 17 19  1  0  0  0  0
 17 20  2  0  0  0  0
 18 21  1  0  0  0  0
 21 22  1  0  0  0  0
 22 23  1  0  0  0  0
 22 24  1  1  0  0  0
 23 25  1  0  0  0  0
 23 26  2  0  0  0  0
  4  5  1  0  0  0  0
  7 11  1  0  0  0  0
  2 27  1  6  0  0  0
 16 28  1  0  0  0  0
 28 10  1  0  0  0  0
 28 29  2  0  0  0  0
M  END
> <ID>
CHEBI:15776

> <NAME>
cephalosporin C

> <DEFINITION>
A cephalosporin antibiotic carrying a 3-acetoxymethyl substituent and a 6-oxo-N6-L-lysino group at position 7.

> <STAR>
3

> <SECONDARY_ID>
CHEBI:3539; CHEBI:13953; CHEBI:23065

> <SYNONYM>
Cephalosporin C; 7-(5-Amino-5-carboxyvaleramido)cephalosporanic acid

> <IUPAC_NAME>
(6R,7R)-3-[(acetyloxy)methyl]-7-{[(5R)-5-amino-5-carboxypentanoyl]amino}-8-oxo-5-thia-1-azabicyclo[4.2.0]oct-2-ene-2-carboxylic acid

> <FORMULA>
C16H21N3O8S

> <MASS>
415.41800

> <MONOISOTOPIC_MASS>
415.10494

> <CHARGE>
0

> <SMILES>
[H][C@]12SCC(COC(C)=O)=C(N1C(=O)[C@H]2NC(=O)CCC[C@@H](N)C(O)=O)C(O)=O

> <INCHI>
InChI=1S/C16H21N3O8S/c1-7(20)27-5-8-6-28-14-11(13(22)19(14)12(8)16(25)26)18-10(21)4-2-3-9(17)15(23)24/h9,11,14H,2-6,17H2,1H3,(H,18,21)(H,23,24)(H,25,26)/t9-,11-,14-/m1/s1

> <INCHIKEY>
HOKIDJSKDBPKTQ-GLXFQSAKSA-N

> <BEILSTEIN_REGISTRY_NUMBER>
65348

> <CAS_REGISTRY_NUMBER>
61-24-5

> <REAXYS_REGISTRY_NUMBER>
65348

> <CHEMIDPLUS>
61-24-5

> <DRUGBANK_ACCESSION>
DB03313

> <HMDB_ACCESSION>
HMDB0060450

> <KEGG_COMPOUND_ACCESSION>
C00916

> <METACYC_ACCESSION>
CSC

> <PDBECHEM_ACCESSION>
CSC

> <WIKIPEDIA_ACCESSION>
Cephalosporin_C

> <PUBMED_CITATION>
13315229; 14370161; 18279889; 19787461; 20171092; 20391764; 2083978; 21219942; 21866341; 22068491; 23053347; 23334835; 23828600; 9131470

$$$$
ChEBI
  Marvin  07301013472D          

 29 30  0  0  1  0            999 V2000
   13.5726  -24.9797    0.0000 N   0  0  0  0  0  0  0  0  0  0  0  0
   13.5726  -24.1534    0.0000 C   0  0  1  0  0  0  0  0  0  0  0  0
   14.2852  -25.4080    0.0000 C   0  0  0  0  0  0  0  0  0  0  0  0
   12.7464  -24.9797    0.0000 C   0  0  0  0  0  0  0  0  0  0  0  0
   12.7464  -24.1534    0.0000 C   0  0  1  0  0  0  0  0  0  0  0  0
   14.2852  -23.7404    0.0000 S   0  0  0  0  0  0  0  0  0  0  0  0
   15.0090  -24.9872    0.0000 C   0  0  0  0  0  0  0  0  0  0  0  0
   14.2776  -26.2342    0.0000 C   0  0  0  0  0  0  0  0  0  0  0  0
   12.1627  -25.5595    0.0000 O   0  0  0  0  0  0  0  0  0  0  0  0
   15.0090  -24.1534    0.0000 C   0  0  0  0  0  0  0  0  0  0  0  0
   15.7216  -25.3966    0.0000 C   0  0  0  0  0  0  0  0  0  0  0  0
   13.5613  -26.6360    0.0000 O   0  0  0  0  0  0  0  0  0  0  0  0
   14.9901  -26.6473    0.0000 O   0  0  0  0  0  0  0  0  0  0  0  0
   13.5726  -23.3309    0.0000 H   0  0  0  0  0  0  0  0  0  0  0  0
   16.4361  -24.9841    0.0000 O   0  0  0  0  0  0  0  0  0  0  0  0
   12.0319  -23.7409    0.0000 N   0  0  0  0  0  0  0  0  0  0  0  0
   11.3174  -24.1534    0.0000 C   0  0  0  0  0  0  0  0  0  0  0  0
   10.6030  -23.7409    0.0000 C   0  0  0  0  0  0  0  0  0  0  0  0
    9.8885  -24.1534    0.0000 C   0  0  0  0  0  0  0  0  0  0  0  0
    9.1740  -23.7409    0.0000 C   0  0  0  0  0  0  0  0  0  0  0  0
    8.4596  -24.1534    0.0000 C   0  0  0  0  0  0  0  0  0  0  0  0
   11.3174  -24.9784    0.0000 O   0  0  0  0  0  0  0  0  0  0  0  0
    8.4596  -24.9784    0.0000 O   0  0  0  0  0  0  0  0  0  0  0  0
    7.7451  -23.7409    0.0000 C   0  0  0  0  0  0  0  0  0  0  0  0
    7.7451  -22.9159    0.0000 O   0  0  0  0  0  0  0  0  0  0  0  0
    7.0306  -24.1534    0.0000 O   0  0  0  0  0  0  0  0  0  0  0  0
   17.1506  -25.3966    0.0000 C   0  0  0  0  0  0  0  0  0  0  0  0
   17.8650  -24.9841    0.0000 C   0  0  0  0  0  0  0  0  0  0  0  0
   17.1505  -26.2216    0.0000 O   0  0  0  0  0  0  0  0  0  0  0  0
  1  2  1  0  0  0  0
  1  3  1  0  0  0  0
  1  4  1  0  0  0  0
  2  5  1  0  0  0  0
  2  6  1  0  0  0  0
  3  7  2  0  0  0  0
  3  8  1  0  0  0  0
  4  9  2  0  0  0  0
  6 10  1  0  0  0  0
  7 11  1  0  0  0  0
  8 12  2  0  0  0  0
  8 13  1  0  0  0  0
  4  5  1  0  0  0  0
  7 10  1  0  0  0  0
  2 14  1  6  0  0  0
 11 15  1  0  0  0  0
  5 16  1  1  0  0  0
 16 17  1  0  0  0  0
 17 18  1  0  0  0  0
 18 19  1  0  0  0  0
 19 20  1  0  0  0  0
 20 21  1  0  0  0  0
 17 22  2  0  0  0  0
 21 23  2  0  0  0  0
 21 24  1  0  0  0  0
 24 25  2  0  0  0  0
 24 26  1  0  0  0  0
 15 27  1  0  0  0  0
 27 28  1  0  0  0  0
 27 29  2  0  0  0  0
M  END
> <ID>
CHEBI:15838

> <NAME>
(7R)-7-(5-carboxy-5-oxopentanamido)cephalosporanic acid

> <DEFINITION>
A cephalosporin having an acetoxy group at the 3-position and a 5-carboxy-5-oxopentanamido group at the 7-position.

> <STAR>
3

> <SECONDARY_ID>
CHEBI:12248; CHEBI:2254; CHEBI:20773

> <SYNONYM>
7-(5-Carboxyl-5-oxopentanyl)-aminocephalosporinate; (7R)-7-(5-carboxy-5-oxopentanoyl)aminocephalosporinic acid; (7R)-7-(5-Carboxy-5-oxopentanoyl)aminocephalosporinate

> <IUPAC_NAME>
(6R,7R)-3-(acetoxymethyl)-7-[(5-carboxy-5-oxopentanoyl)amino]-8-oxo-5-thia-1-azabicyclo[4.2.0]oct-2-ene-2-carboxylic acid

> <FORMULA>
C16H18N2O9S

> <MASS>
414.38700

> <MONOISOTOPIC_MASS>
414.07330

> <CHARGE>
0

> <SMILES>
[H][C@]12SCC(COC(C)=O)=C(N1C(=O)[C@H]2NC(=O)CCCC(=O)C(O)=O)C(O)=O

> <INCHI>
InChI=1S/C16H18N2O9S/c1-7(19)27-5-8-6-28-14-11(13(22)18(14)12(8)16(25)26)17-10(21)4-2-3-9(20)15(23)24/h11,14H,2-6H2,1H3,(H,17,21)(H,23,24)(H,25,26)/t11-,14-/m1/s1

> <INCHIKEY>
UKRMDFPJXIVYCZ-BXUZGUMPSA-N

> <BEILSTEIN_REGISTRY_NUMBER>
5395497

> <KEGG_COMPOUND_ACCESSION>
C04712

$$$$

Marvin  11090718132D          

  4  3  0  0  0  0            999 V2000
    0.3572   -0.2063    0.0000 C   0  0  0  0  0  0  0  0  0  0  0  0
   -0.3572    0.2062    0.0000 C   0  0  0  0  0  0  0  0  0  0  0  0
    1.0717    0.2062    0.0000 O   0  0  0  0  0  0  0  0  0  0  0  0
   -1.0717   -0.2063    0.0000 N   0  0  0  0  0  0  0  0  0  0  0  0
  2  1  1  0  0  0  0
  3  1  1  0  0  0  0
  4  2  1  0  0  0  0
M  END
> <ID>
CHEBI:16000

> <NAME>
ethanolamine

> <DEFINITION>
A member of the class of  ethanolamines that is ethane with an amino substituent at C-1 and a hydroxy substituent at C-2, making it both a primary amine and a primary alcohol.

> <STAR>
3

> <SECONDARY_ID>
CHEBI:42323; CHEBI:272066; CHEBI:14223; CHEBI:23979; CHEBI:4880

> <SYNONYM>
monoethanolamine; MONOETHANOLAMINE; MEA; Hea; glycinol; Ethanolamine; ETA; colamine; beta-hydroxyethylamine; beta-ethanolamine; beta-aminoethyl alcohol; beta-aminoethanol; Aminoethanol; Aethanolamin; 2-Hydroxyethylamine; 2-aminoethyl alcohol; 2-aminoethan-1-ol; 2-Amino-ethanol; 2-amino-1-ethanol; 1-amino-2-hydroxyethane

> <IUPAC_NAME>
2-aminoethanol

> <FORMULA>
C2H7NO

> <MASS>
61.08312

> <MONOISOTOPIC_MASS>
61.05276

> <CHARGE>
0

> <SMILES>
NCCO

> <INCHI>
InChI=1S/C2H7NO/c3-1-2-4/h4H,1-3H2

> <INCHIKEY>
HZAXFHJVJLSVMW-UHFFFAOYSA-N

> <BEILSTEIN_REGISTRY_NUMBER>
505944

> <CAS_REGISTRY_NUMBER>
141-43-5

> <GMELIN_REGISTRY_NUMBER>
1650

> <REAXYS_REGISTRY_NUMBER>
505944

> <CHEMIDPLUS>
141-43-5

> <DRUGBANK_ACCESSION>
DB03994

> <HMDB_ACCESSION>
HMDB0000149

> <KEGG_COMPOUND_ACCESSION>
C00189

> <KEGG_DRUG_ACCESSION>
D05074

> <KNAPSACK_ACCESSION>
C00007279

> <NIST_CHEMISTRY_WEBBOOK>
141-43-5

> <PDBECHEM_ACCESSION>
ETA

> <WIKIPEDIA_ACCESSION>
Ethanolamine

> <PUBMED_CITATION>
10930630; 12834252; 24023812; 3654008; 6196640; 15149650; 6708049

$$$$

Marvin  02051012182D          

 28 29  0  0  0  0            999 V2000
   -0.7366    1.7384    0.0000 C   0  0  1  0  0  0  0  0  0  0  0  0
    0.0884    1.7384    0.0000 C   0  0  1  0  0  0  0  0  0  0  0  0
    0.0884    0.9134    0.0000 N   0  0  0  0  0  0  0  0  0  0  0  0
   -0.7366    0.9134    0.0000 C   0  0  0  0  0  0  0  0  0  0  0  0
    0.6718    0.3300    0.0000 S   0  0  0  0  0  0  0  0  0  0  0  0
    1.2551   -0.2533    0.0000 O   0  5  0  0  0  0  0  0  0  0  0  0
    1.2684    0.9586    0.0000 O   0  0  0  0  0  0  0  0  0  0  0  0
    0.0555   -0.2985    0.0000 O   0  0  0  0  0  0  0  0  0  0  0  0
   -1.3200    0.3300    0.0000 O   0  0  0  0  0  0  0  0  0  0  0  0
    0.6718    2.3218    0.0000 C   0  0  0  0  0  0  0  0  0  0  0  0
   -1.4511    2.1509    0.0000 N   0  0  0  0  0  0  0  0  0  0  0  0
   -2.1655    1.7384    0.0000 C   0  0  0  0  0  0  0  0  0  0  0  0
   -2.1655    0.9134    0.0000 O   0  0  0  0  0  0  0  0  0  0  0  0
   -2.8800    2.1509    0.0000 C   0  0  0  0  0  0  0  0  0  0  0  0
   -2.8800    2.9759    0.0000 N   0  0  0  0  0  0  0  0  0  0  0  0
   -4.3791    0.6585    0.0000 S   0  0  0  0  0  0  0  0  0  0  0  0
   -3.5945    0.9134    0.0000 C   0  0  0  0  0  0  0  0  0  0  0  0
   -3.5945    1.7384    0.0000 C   0  0  0  0  0  0  0  0  0  0  0  0
   -4.3791    1.9933    0.0000 N   0  0  0  0  0  0  0  0  0  0  0  0
   -4.8640    1.3259    0.0000 C   0  0  0  0  0  0  0  0  0  0  0  0
   -2.1655    3.3884    0.0000 O   0  0  0  0  0  0  0  0  0  0  0  0
   -2.1655    4.2134    0.0000 C   0  0  0  0  0  0  0  0  0  0  0  0
   -1.4511    4.6259    0.0000 C   0  0  0  0  0  0  0  0  0  0  0  0
   -1.4511    5.4509    0.0000 O   0  0  0  0  0  0  0  0  0  0  0  0
   -0.7366    4.2134    0.0000 O   0  0  0  0  0  0  0  0  0  0  0  0
   -2.5780    4.9279    0.0000 C   0  0  0  0  0  0  0  0  0  0  0  0
   -2.9624    3.9999    0.0000 C   0  0  0  0  0  0  0  0  0  0  0  0
   -5.6890    1.3259    0.0000 N   0  3  0  0  0  0  0  0  0  0  0  0
  1  2  1  0  0  0  0
  2  3  1  0  0  0  0
  1  4  1  0  0  0  0
  4  3  1  0  0  0  0
  3  5  1  0  0  0  0
  5  6  1  0  0  0  0
  5  7  2  0  0  0  0
  5  8  2  0  0  0  0
  4  9  2  0  0  0  0
  2 10  1  6  0  0  0
  1 11  1  1  0  0  0
 11 12  1  0  0  0  0
 12 13  2  0  0  0  0
 12 14  1  0  0  0  0
 14 18  1  0  0  0  0
 14 15  2  0  0  0  0
 16 17  1  0  0  0  0
 16 20  1  0  0  0  0
 17 18  2  0  0  0  0
 18 19  1  0  0  0  0
 19 20  2  0  0  0  0
 15 21  1  0  0  0  0
 21 22  1  0  0  0  0
 22 23  1  0  0  0  0
 23 24  2  0  0  0  0
 23 25  1  0  0  0  0
 22 26  1  0  0  0  0
 22 27  1  0  0  0  0
 20 28  1  0  0  0  0
M  CHG  2   6  -1  28   1
M  END
> <ID>
CHEBI:161680

> <NAME>
aztreonam

> <DEFINITION>
A synthetic monocyclic β-lactam antibiotic (monobactam), used primarily to treat infections caused by Gram-negative bacteria. It inhibits mucopeptide synthesis in the bacterial cell wall, thereby blocking peptidoglycan crosslinking.

> <STAR>
3

> <SECONDARY_ID>
CHEBI:41008; CHEBI:2960

> <SYNONYM>
AZT; (Z,)-2-((((2-Amino-4-thiazolyl)(((2S,3S,)-2-methyl-4-oxo-1-sulfo-3-azetidinyl)carbamoyl)methylene)amino)oxy)-2-methylpropionic acid

> <IUPAC_NAME>
(2S,3S)-3-{(2Z)-2-(2-ammonio-1,3-thiazol-4-yl)-2-[(2-carboxypropan-2-yloxy)imino]acetamido}-2-methyl-4-oxoazetidine-1-sulfonate

> <INN>
aztreonamum; aztreonam; aztreonam

> <BRAND_NAME>
Primbactam; Azactam

> <FORMULA>
C13H17N5O8S2

> <MASS>
435.43300

> <MONOISOTOPIC_MASS>
435.05185

> <CHARGE>
0

> <SMILES>
C[C@H]1[C@H](NC(=O)C(=N/OC(C)(C)C(O)=O)\c2csc([NH3+])n2)C(=O)N1S([O-])(=O)=O

> <INCHI>
InChI=1S/C13H17N5O8S2/c1-5-7(10(20)18(5)28(23,24)25)16-9(19)8(6-4-27-12(14)15-6)17-26-13(2,3)11(21)22/h4-5,7H,1-3H3,(H2,14,15)(H,16,19)(H,21,22)(H,23,24,25)/b17-8-/t5-,7-/m0/s1

> <INCHIKEY>
WZPBZJONDBGPKJ-VEHQQRBSSA-N

> <BEILSTEIN_REGISTRY_NUMBER>
3577211

> <CAS_REGISTRY_NUMBER>
78110-38-0

> <REAXYS_REGISTRY_NUMBER>
3577211

> <CHEMIDPLUS>
78110-38-0

> <DRUGBANK_ACCESSION>
DB00355

> <KEGG_COMPOUND_ACCESSION>
C06840

> <KEGG_DRUG_ACCESSION>
D00240

> <PDBECHEM_ACCESSION>
AZR

> <WIKIPEDIA_ACCESSION>
Aztreonam

> <PUBMED_CITATION>
1384868; 15123864; 24119095; 24176390; 24369293; 25049240; 25091537; 25295210; 28543395; 29017833

$$$$

Mrv0541 12021315042D          

  9  9  0  0  0  0            999 V2000
    0.0195   -7.7813    0.0000 C   0  0  0  0  0  0  0  0  0  0  0  0
   -0.6950   -8.1938    0.0000 N   0  0  0  0  0  0  0  0  0  0  0  0
    0.0195   -6.9563    0.0000 N   0  0  0  0  0  0  0  0  0  0  0  0
   -1.4095   -7.7813    0.0000 C   0  0  0  0  0  0  0  0  0  0  0  0
   -0.6950   -6.5438    0.0000 C   0  0  0  0  0  0  0  0  0  0  0  0
   -1.4095   -6.9563    0.0000 C   0  0  0  0  0  0  0  0  0  0  0  0
    0.7339   -8.1938    0.0000 O   0  0  0  0  0  0  0  0  0  0  0  0
   -0.6950   -5.7188    0.0000 O   0  0  0  0  0  0  0  0  0  0  0  0
   -2.1239   -8.1938    0.0000 O   0  0  0  0  0  0  0  0  0  0  0  0
  2  1  1  0  0  0  0
  3  1  1  0  0  0  0
  4  2  1  0  0  0  0
  5  3  1  0  0  0  0
  6  4  1  0  0  0  0
  6  5  1  0  0  0  0
  7  1  2  0  0  0  0
  8  5  2  0  0  0  0
  9  4  2  0  0  0  0
M  END
> <ID>
CHEBI:16294

> <NAME>
barbituric acid

> <DEFINITION>
A barbiturate, the structure of which is that of perhydropyrimidine substituted at C-2, -4 and -6 by oxo groups.  Barbituric acid is the parent compound of barbiturate drugs, although it is not itself pharmacologically active.

> <STAR>
3

> <SECONDARY_ID>
CHEBI:2993; CHEBI:22692

> <SYNONYM>
Malonylurea; Malonylharnstoff; Barbitursaeure; Barbituric acid; 2,4,6(1H,3H,5H)-pyrimidinetrione

> <IUPAC_NAME>
pyrimidine-2,4,6(1H,3H,5H)-trione

> <FORMULA>
C4H4N2O3

> <MASS>
128.08620

> <MONOISOTOPIC_MASS>
128.02219

> <CHARGE>
0

> <SMILES>
O=C1CC(=O)NC(=O)N1

> <INCHI>
InChI=1S/C4H4N2O3/c7-2-1-3(8)6-4(9)5-2/h1H2,(H2,5,6,7,8,9)

> <INCHIKEY>
HNYOPLTXPVRDBG-UHFFFAOYSA-N

> <BEILSTEIN_REGISTRY_NUMBER>
120502

> <CAS_REGISTRY_NUMBER>
67-52-7

> <GMELIN_REGISTRY_NUMBER>
101571

> <REAXYS_REGISTRY_NUMBER>
120502

> <CHEMIDPLUS>
67-52-7

> <HMDB_ACCESSION>
HMDB0041833

> <KEGG_COMPOUND_ACCESSION>
C00813

> <NIST_CHEMISTRY_WEBBOOK>
67-52-7

> <WIKIPEDIA_ACCESSION>
Barbituric_acid

> <PUBMED_CITATION>
22139480; 23038042; 23915243; 3654008

$$$$

11280714552D 1   1.00000     0.00000     0

 17 18  0     0  0            999 V2000
    3.8167   -0.7667    0.0000 O   0  0  0  0  0  0           0  0  0
    3.1042   -1.1792    0.0000 C   0  0  0  0  0  0           0  0  0
    4.5292   -1.1750    0.0000 C   0  0  0  0  0  0           0  0  0
    2.3792   -0.7667    0.0000 C   0  0  0  0  0  0           0  0  0
    5.2375   -0.7542    0.0000 C   0  0  0  0  0  0           0  0  0
    1.6750   -1.1875    0.0000 C   0  0  0  0  0  0           0  0  0
    5.9542   -1.1625    0.0000 C   0  0  0  0  0  0           0  0  0
    3.1042   -2.0125    0.0000 C   0  0  0  0  0  0           0  0  0
    4.5292   -2.0000    0.0000 C   0  0  0  0  0  0           0  0  0
    1.6750   -2.0125    0.0000 C   0  0  0  0  0  0           0  0  0
    5.9625   -1.9917    0.0000 C   0  0  0  0  0  0           0  0  0
    2.3792    0.0583    0.0000 Cl  0  0  0  0  0  0           0  0  0
    5.2292    0.0625    0.0000 O   0  0  0  0  0  0           0  0  0
    2.3792   -2.4250    0.0000 C   0  0  0  0  0  0           0  0  0
    5.2417   -2.4042    0.0000 C   0  0  0  0  0  0           0  0  0
    0.9542   -2.4250    0.0000 Cl  0  0  0  0  0  0           0  0  0
    6.6792   -2.4042    0.0000 Cl  0  0  0  0  0  0           0  0  0
  2  1  1  0     0  0
  3  1  1  0     0  0
  4  2  2  0     0  0
  5  3  1  0     0  0
  6  4  1  0     0  0
  7  5  2  0     0  0
  8  2  1  0     0  0
  9  3  2  0     0  0
 10 14  1  0     0  0
 11 15  2  0     0  0
 12  4  1  0     0  0
 13  5  1  0     0  0
 14  8  2  0     0  0
 15  9  1  0     0  0
 16 10  1  0     0  0
 17 11  1  0     0  0
  7 11  1  0     0  0
  6 10  2  0     0  0
M  END
> <ID>
CHEBI:164200

> <NAME>
triclosan

> <DEFINITION>
An aromatic ether that is phenol which is substituted at C-5 by a chloro group and at C-2 by a 2,4-dichlorophenoxy group. It is widely used as a preservative and antimicrobial agent in personal care products such as soaps, skin creams, toothpaste and deodorants as well as in household items such as plastic chopping boards, sports equipment and shoes.

> <STAR>
3

> <SECONDARY_ID>
CHEBI:47700; CHEBI:29697

> <SYNONYM>
Triclosan; 5-Chloro-2-(2,4-dichloro-phenoxy)-phenol; 2,4,4'-Trichloro-2'-hydroxydiphenyl ether

> <IUPAC_NAME>
5-chloro-2-(2,4-dichlorophenoxy)phenol

> <INN>
triclosanum; triclosan; triclosan; triclosan

> <FORMULA>
C12H7Cl3O2

> <MASS>
289.54200

> <MONOISOTOPIC_MASS>
287.95116

> <CHARGE>
0

> <SMILES>
Oc1cc(Cl)ccc1Oc1ccc(Cl)cc1Cl

> <INCHI>
InChI=1S/C12H7Cl3O2/c13-7-1-3-11(9(15)5-7)17-12-4-2-8(14)6-10(12)16/h1-6,16H

> <INCHIKEY>
XEFQLINVKFYRCS-UHFFFAOYSA-N

> <BEILSTEIN_REGISTRY_NUMBER>
2057142

> <CAS_REGISTRY_NUMBER>
3380-34-5

> <REAXYS_REGISTRY_NUMBER>
2057142

> <CHEMIDPLUS>
3380-34-5

> <DRUGBANK_ACCESSION>
DB08604

> <KEGG_COMPOUND_ACCESSION>
C12059

> <KEGG_DRUG_ACCESSION>
D06226

> <LINCS_ACCESSION>
LSM-2929

> <PDBECHEM_ACCESSION>
TCL

> <WIKIPEDIA_ACCESSION>
Triclosan

> <PUBMED_CITATION>
11175846; 11418506; 15269185; 17567585; 18837732; 18937596; 19388793; 21094257; 21166831; 21833630; 22105314; 22561896; 22746545; 23146048; 23161706; 23192912; 23282071; 23313217; 23320506; 23368947; 23435526; 23561013; 23592331; 23614034; 23648333; 23791346; 23831729; 23890965; 23927454; 24079913; 25179274; 28236114; 28339349; 28632490; 28741979; 29030459; 29067681; 29100157; 29109308; 29111213; 29111444; 29131715; 29150338; 29154092; 29172042; 29175687; 29197580; 29205483; 29214481; 29232866; 29277667; 29332277; 29340711; 29348637

$$$$

Ketcher 11211914162D 1   1.00000     0.00000     0

 15 16  0     1  0            999 V2000
    1.7601   -1.7601    0.0000 C   0  0  0  0  0  0  0  0  0  0  0  0
    2.7383   -1.9680    0.0000 O   0  0  0  0  0  0  0  0  0  0  0  0
    1.0910   -2.5032    0.0000 O   0  0  0  0  0  0  0  0  0  0  0  0
    1.4511    0.8090    0.0000 S   0  0  0  0  0  0  0  0  0  0  0  0
    0.5000    0.5000    0.0000 C   0  0  0  0  0  0  0  0  0  0  0  0
    1.4511   -0.8091    0.0000 C   0  0  0  0  0  0  0  0  0  0  0  0
    2.0389    0.0000    0.0000 C   0  0  0  0  0  0  0  0  0  0  0  0
    0.5000   -0.5000    0.0000 N   0  0  0  0  0  0  0  0  0  0  0  0
    0.5000    1.5000    0.0000 H   0  0  0  0  0  0  0  0  0  0  0  0
   -0.5000   -0.5000    0.0000 C   0  0  0  0  0  0  0  0  0  0  0  0
   -1.2070   -1.2071    0.0000 O   0  0  0  0  0  0  0  0  0  0  0  0
    2.9049    0.5000    0.0000 C   0  0  0  0  0  0  0  0  0  0  0  0
    2.9049   -0.5000    0.0000 C   0  0  0  0  0  0  0  0  0  0  0  0
   -0.5000    0.5000    0.0000 C   0  0  0  0  0  0  0  0  0  0  0  0
   -1.2071    1.2071    0.0000 N   0  0  0  0  0  0  0  0  0  0  0  0
  6  1  1  6     0  0
  2  1  1  0     0  0
  3  1  2  0     0  0
  4  5  1  0     0  0
  6  7  1  0     0  0
  4  7  1  0     0  0
  5 14  1  0     0  0
  8  6  1  0     0  0
  5  8  1  0     0  0
  5  9  1  6     0  0
  8 10  1  0     0  0
 14 10  1  0     0  0
 10 11  2  0     0  0
 14 15  1  1     0  0
  7 12  1  0     0  0
  7 13  1  0     0  0
M  END
> <ID>
CHEBI:16705

> <NAME>
6-aminopenicillanic acid

> <DEFINITION>
A penicillanic acid compound having a (6R)-amino substituent. The active nucleus common to all penicillins, it may be substituted at the 6-amino position to form the semisynthetic penicillins, resulting in a variety of antibacterial and pharmacologic characteristics.

> <STAR>
3

> <SECONDARY_ID>
CHEBI:20705; CHEBI:2172

> <SYNONYM>
Phenacyl 6-aminopenicillinate; Penin; Penicin; Aminopenicillanic acid; 6beta-aminopenicillanic acid; 6-Aps; 6-Apa; 6-APA; 6-Aminopenicillanic acid; 6-Aminopenicillanate; 6-Aminopenicillamine acid; (2S,5R,6R)-6-amino-3,3-dimethyl-7-oxo-4-thia-1-azabicyclo[3.2.0]heptane-2-carboxylic acid; (+)-6-aminopenicillanic acid

> <IUPAC_NAME>
6-amino-2,2-dimethylpenam-3alpha-carboxylic acid

> <FORMULA>
C8H12N2O3S; C8H12N2O3S

> <MASS>
216.260

> <MONOISOTOPIC_MASS>
216.05686

> <CHARGE>
0

> <SMILES>
C([C@H]1C(S[C@@]2([C@@H](C(N12)=O)N)[H])(C)C)(O)=O

> <INCHI>
InChI=1S/C8H12N2O3S/c1-8(2)4(7(12)13)10-5(11)3(9)6(10)14-8/h3-4,6H,9H2,1-2H3,(H,12,13)/t3-,4+,6-/m1/s1

> <INCHIKEY>
NGHVIOIJCVXTGV-ALEPSDHESA-N

> <BEILSTEIN_REGISTRY_NUMBER>
959078

> <CAS_REGISTRY_NUMBER>
551-16-6

> <GMELIN_REGISTRY_NUMBER>
1876702

> <REAXYS_REGISTRY_NUMBER>
15080

> <CHEMIDPLUS>
551-16-6

> <KEGG_COMPOUND_ACCESSION>
C02954

> <PDBECHEM_ACCESSION>
X1E

> <WIKIPEDIA_ACCESSION>
6-APA

> <PUBMED_CITATION>
12569987; 1384868; 14687482; 1701026; 20970923; 21614893; 24293403; 24389703; 24631718; 25057428; 26852849; 26986755; 6166603

$$$$

11280714562D 1   1.00000     0.00000     0

 10 11  0     0  0            999 V2000
    2.1667   -0.7167    0.0000 C   0  0  0  0  0  0           0  0  0
    2.5167   -1.2042    0.0000 N   0  0  0  0  0  0           0  0  0
    1.5917   -0.9042    0.0000 C   0  0  0  0  0  0           0  0  0
    2.1667   -1.6917    0.0000 S   0  0  0  0  0  0           0  0  0
    1.5917   -1.5042    0.0000 C   0  0  0  0  0  0           0  0  0
    2.3500   -0.1417    0.0000 O   0  0  0  0  0  0           0  0  0
    1.0750   -0.6042    0.0000 C   0  0  0  0  0  0           0  0  0
    1.0750   -1.8042    0.0000 C   0  0  0  0  0  0           0  0  0
    0.5542   -0.9042    0.0000 C   0  0  0  0  0  0           0  0  0
    0.5542   -1.5042    0.0000 C   0  0  0  0  0  0           0  0  0
  2  1  1  0     0  0
  3  1  1  0     0  0
  4  2  1  0     0  0
  5  3  1  0     0  0
  6  1  2  0     0  0
  7  3  2  0     0  0
  8  5  2  0     0  0
  9  7  1  0     0  0
 10  9  2  0     0  0
  5  4  1  0     0  0
  8 10  1  0     0  0
M  END
> <ID>
CHEBI:167099

> <NAME>
benzo[d]isothiazol-3-one

> <DEFINITION>
An organic heterobicyclic compound based on a fused 1,2-thiazole and benzene bicyclic ring skeleton, with the S atom positioned adjacent to one of the positions of ring fusion.

> <STAR>
3

> <SYNONYM>
IPX; BIT; benzisothiazolone; 2,3-dihydro-3-oxo-1,2-benzisothiazole; 1,2-Benzisothiazoline-3-one; 1,2-Benzisothiazolin-3-one; 1,2-Benzisothiazol-3(2H)-one

> <IUPAC_NAME>
1,2-benzisothiazol-3(2H)-one

> <FORMULA>
C7H5NOS

> <MASS>
151.18600

> <MONOISOTOPIC_MASS>
151.00918

> <CHARGE>
0

> <SMILES>
O=c1[nH]sc2ccccc12

> <INCHI>
InChI=1S/C7H5NOS/c9-7-5-3-1-2-4-6(5)10-8-7/h1-4H,(H,8,9)

> <INCHIKEY>
DMSMPAJRVJJAGA-UHFFFAOYSA-N

> <BEILSTEIN_REGISTRY_NUMBER>
119510

> <CAS_REGISTRY_NUMBER>
2634-33-5

> <REAXYS_REGISTRY_NUMBER>
119510

> <CHEMIDPLUS>
2634-33-5

> <HMDB_ACCESSION>
HMDB0034413

> <WIKIPEDIA_ACCESSION>
Benzisothiazolinone

> <PUBMED_CITATION>
10201825; 10604041; 17988285; 21903403; 23429043; 6446435; 8833462; 9046655; 9231500

$$$$
ChEBI
  Marvin  03150712512D          

 23 27  0  0  1  0            999 V2000
   10.2860   -8.3818    0.0000 C   0  0  2  0  0  0  0  0  0  0  0  0
   10.2825   -7.5596    0.0000 C   0  0  0  0  0  0  0  0  0  0  0  0
   10.9917   -8.7982    0.0000 C   0  0  2  0  0  0  0  0  0  0  0  0
    9.5662   -8.7876    0.0000 C   0  0  1  0  0  0  0  0  0  0  0  0
   10.9917   -7.9619    0.0000 C   0  0  0  0  0  0  0  0  0  0  0  0
    9.5662   -7.1503    0.0000 C   0  0  0  0  0  0  0  0  0  0  0  0
   10.9952   -7.1503    0.0000 C   0  0  0  0  0  0  0  0  0  0  0  0
   11.7080   -8.3889    0.0000 C   0  0  1  0  0  0  0  0  0  0  0  0
   10.9882   -9.6203    0.0000 C   0  0  0  0  0  0  0  0  0  0  0  0
    8.7476   -7.9126    0.0000 O   0  0  0  0  0  0  0  0  0  0  0  0
    9.5626   -9.6098    0.0000 C   0  0  2  0  0  0  0  0  0  0  0  0
   12.4173   -7.9760    0.0000 C   0  0  0  0  0  0  0  0  0  0  0  0
    9.5662   -6.3211    0.0000 C   0  0  0  0  0  0  0  0  0  0  0  0
   11.7115   -7.5632    0.0000 C   0  0  0  0  0  0  0  0  0  0  0  0
   10.9952   -6.3211    0.0000 C   0  0  0  0  0  0  0  0  0  0  0  0
   12.4243   -8.8053    0.0000 N   0  0  0  0  0  0  0  0  0  0  0  0
   10.2719  -10.0262    0.0000 C   0  0  0  0  0  0  0  0  0  0  0  0
    8.8428  -10.0226    0.0000 O   0  0  0  0  0  0  0  0  0  0  0  0
   10.2860   -5.9083    0.0000 C   0  0  0  0  0  0  0  0  0  0  0  0
    8.8499   -5.9083    0.0000 O   0  0  0  0  0  0  0  0  0  0  0  0
   13.2218   -8.5865    0.0000 C   0  0  0  0  0  0  0  0  0  0  0  0
    8.1336   -6.3211    0.0000 C   0  0  0  0  0  0  0  0  0  0  0  0
   11.7786   -9.3663    0.0000 H   0  0  0  0  0  0  0  0  0  0  0  0
  1  2  1  0  0  0  0
  1  3  1  0  0  0  0
  1  4  1  0  0  0  0
  1  5  1  1  0  0  0
  2  6  2  0  0  0  0
  2  7  1  0  0  0  0
  3  8  1  0  0  0  0
  3  9  1  0  0  0  0
  4 10  1  6  0  0  0
  4 11  1  0  0  0  0
  6 13  1  0  0  0  0
  7 14  1  0  0  0  0
  7 15  2  0  0  0  0
  8 16  1  1  0  0  0
  9 17  2  0  0  0  0
 11 18  1  6  0  0  0
 13 19  2  0  0  0  0
 13 20  1  0  0  0  0
 16 21  1  0  0  0  0
 20 22  1  0  0  0  0
  6 10  1  0  0  0  0
  8 14  1  0  0  0  0
 11 17  1  0  0  0  0
 12 16  1  0  0  0  0
 15 19  1  0  0  0  0
  3 23  1  1  0  0  0
  5 12  1  0  0  0  0
M  END
> <ID>
CHEBI:16714

> <NAME>
codeine

> <DEFINITION>
A  morphinane alkaloid found in the opium poppy, Papaver somniferum var. album; has analgesic, anti-tussive and anti-diarrhoeal properties.

> <STAR>
3

> <SECONDARY_ID>
CHEBI:3803; CHEBI:14006; CHEBI:23348

> <SYNONYM>
O(3)-methylmorphine; morphine-3-methyl ether; morphine monomethyl ether; morphine 3-methyl ether; methylmorphine; l-codeine; codeine anhydrous; Codeine; Codein; 7,8-didehydro-4,5alpha-epoxy-3-methoxy-17-methylmorphinan-6alpha-ol; (5alpha,6alpha)-7,8-Didehydro-4,5-epoxy-3-methoxy-17-methylmorphinan-6-ol; (1S,13R,14S,17R)-10-methoxy-4-methyl-12-oxa-4-azapentacyclo[9.6.1.0(1,13).0(5,17).0(7,18)]octadeca-7(18),8,10,15-tetraen-14-ol; (-)-Codeine

> <IUPAC_NAME>
3-methoxy-17-methyl-7,8-didehydro-4,5alpha-epoxymorphinan-6alpha-ol

> <INN>
codeine; codeine; codeina

> <BRAND_NAME>
Coducept; Codicept

> <FORMULA>
C18H21NO3

> <MASS>
299.36420

> <MONOISOTOPIC_MASS>
299.15214

> <CHARGE>
0

> <SMILES>
[H][C@]12C=C[C@H](O)[C@@H]3Oc4c(OC)ccc5C[C@H]1N(C)CC[C@@]23c45

> <INCHI>
InChI=1S/C18H21NO3/c1-19-8-7-18-11-4-5-13(20)17(18)22-16-14(21-2)6-3-10(15(16)18)9-12(11)19/h3-6,11-13,17,20H,7-9H2,1-2H3/t11-,12+,13-,17-,18-/m0/s1

> <INCHIKEY>
OROGSEYTTFOCAN-DNJOTXNNSA-N

> <BEILSTEIN_REGISTRY_NUMBER>
94996

> <CAS_REGISTRY_NUMBER>
76-57-3

> <GMELIN_REGISTRY_NUMBER>
232454

> <REAXYS_REGISTRY_NUMBER>
94996

> <CHEMIDPLUS>
76-57-3

> <DRUGBANK_ACCESSION>
DB00318

> <KEGG_COMPOUND_ACCESSION>
C06174

> <KNAPSACK_ACCESSION>
C00001837

> <NIST_CHEMISTRY_WEBBOOK>
76-57-3

> <WIKIPEDIA_ACCESSION>
Codeine

> <PUBMED_CITATION>
2215478; 23507688; 24069665; 24176887; 24324229; 24396053; 24458010; 24491926; 24517264; 9776433

$$$$

Marvin  10310710362D          

  4  3  0  0  0  0            999 V2000
    0.0000    0.0000    0.0000 C   0  0  0  0  0  0  0  0  0  0  0  0
   -0.7145   -0.4125    0.0000 H   0  0  0  0  0  0  0  0  0  0  0  0
    0.0000    0.8250    0.0000 O   0  0  0  0  0  0  0  0  0  0  0  0
    0.7145   -0.4125    0.0000 H   0  0  0  0  0  0  0  0  0  0  0  0
  3  1  2  0  0  0  0
  1  4  1  0  0  0  0
  1  2  1  0  0  0  0
M  END
> <ID>
CHEBI:16842

> <NAME>
formaldehyde

> <DEFINITION>
An aldehyde resulting from the formal oxidation of methanol.

> <STAR>
3

> <SECONDARY_ID>
CHEBI:5142; CHEBI:14274; CHEBI:24077; CHEBI:337763

> <SYNONYM>
Oxomethylene; Oxomethane; Methylene oxide; Methanal; Formalin; FORMALIN; FORMALDEHYDE; formaldehyde; Formaldehyde; Formaldehyd

> <IUPAC_NAME>
formaldehyde

> <FORMULA>
CH2O

> <MASS>
30.02598

> <MONOISOTOPIC_MASS>
30.01056

> <CHARGE>
0

> <SMILES>
[H]C([H])=O

> <INCHI>
InChI=1S/CH2O/c1-2/h1H2

> <INCHIKEY>
WSFSSNUMVMOOMR-UHFFFAOYSA-N

> <BEILSTEIN_REGISTRY_NUMBER>
1209228

> <CAS_REGISTRY_NUMBER>
50-00-0

> <GMELIN_REGISTRY_NUMBER>
445

> <REAXYS_REGISTRY_NUMBER>
1209228

> <CHEMIDPLUS>
50-00-0

> <DRUGBANK_ACCESSION>
DB03843

> <HMDB_ACCESSION>
HMDB0001426

> <KEGG_COMPOUND_ACCESSION>
C00067

> <KEGG_DRUG_ACCESSION>
D00017

> <METACYC_ACCESSION>
FORMALDEHYDE

> <NIST_CHEMISTRY_WEBBOOK>
50-00-0

> <PDBECHEM_ACCESSION>
FOR

> <WIKIPEDIA_ACCESSION>
Formaldehyde

> <PUBMED_CITATION>
110589; 12686735; 15091529; 16423181; 17618393; 18837732; 25042713; 7548723; 7689168; 7896413; 9686972; 7381846

$$$$
ChEBI
  Marvin  09090511442D          

 12 11  0  0  1  0            999 V2000
    4.3754   -2.8827    0.0000 C   0  0  0  0  0  0  0  0  0  0  0  0
    5.0946   -3.2870    0.0000 C   0  0  2  0  0  0  0  0  0  0  0  0
    5.8075   -2.8663    0.0000 C   0  0  2  0  0  0  0  0  0  0  0  0
    6.5267   -3.2705    0.0000 C   0  0  1  0  0  0  0  0  0  0  0  0
    7.2397   -2.8498    0.0000 C   0  0  1  0  0  0  0  0  0  0  0  0
    7.9588   -3.2540    0.0000 C   0  0  0  0  0  0  0  0  0  0  0  0
    3.6748   -3.2962    0.0000 O   0  0  0  0  0  0  0  0  0  0  0  0
    5.1008   -4.1119    0.0000 O   0  0  0  0  0  0  0  0  0  0  0  0
    5.8013   -2.0413    0.0000 O   0  0  0  0  0  0  0  0  0  0  0  0
    6.5329   -4.0955    0.0000 O   0  0  0  0  0  0  0  0  0  0  0  0
    7.2334   -2.0248    0.0000 O   0  0  0  0  0  0  0  0  0  0  0  0
    7.9650   -4.0790    0.0000 O   0  0  0  0  0  0  0  0  0  0  0  0
  7  1  1  0  0  0  0
  2  1  1  0  0  0  0
  2  8  1  6  0  0  0
  3  2  1  0  0  0  0
  3  9  1  1  0  0  0
  4  3  1  0  0  0  0
  4 10  1  1  0  0  0
  5  4  1  0  0  0  0
  5 11  1  6  0  0  0
  6  5  1  0  0  0  0
 12  6  1  0  0  0  0
M  END
> <ID>
CHEBI:16899

> <NAME>
D-mannitol

> <DEFINITION>
The D-enantiomer of mannitol.

> <STAR>
3

> <SECONDARY_ID>
CHEBI:130180; CHEBI:44192; CHEBI:12996; CHEBI:6686; CHEBI:21050

> <SYNONYM>
mannitol; Mannitol; mannite; manna sugar; E421; E-421; E 421; dulcite; D-mannitol; D-Mannitol; D-mannitol; D-(-)-Mannitol; (2R,3R,4R,5R)-hexane-1,2,3,4,5,6-hexol; (2R,3R,4R,5R)-Hexane-1,2,3,4,5,6-hexaol; (2R,3R,4R,5R)-hexane-1,2,3,4,5,6-hexaol

> <IUPAC_NAME>
D-mannitol

> <BRAND_NAME>
Osmitrol

> <FORMULA>
C6H14O6

> <MASS>
182.17176

> <MONOISOTOPIC_MASS>
182.07904

> <CHARGE>
0

> <SMILES>
OC[C@@H](O)[C@@H](O)[C@H](O)[C@H](O)CO

> <INCHI>
InChI=1S/C6H14O6/c7-1-3(9)5(11)6(12)4(10)2-8/h3-12H,1-2H2/t3-,4-,5-,6-/m1/s1

> <INCHIKEY>
FBPFZTCFMRRESA-KVTDHHQDSA-N

> <BEILSTEIN_REGISTRY_NUMBER>
1721898

> <CAS_REGISTRY_NUMBER>
69-65-8

> <GMELIN_REGISTRY_NUMBER>
83161

> <REAXYS_REGISTRY_NUMBER>
1721898

> <CHEMIDPLUS>
69-65-8

> <DRUGBANK_ACCESSION>
DB00742

> <HMDB_ACCESSION>
HMDB0000765

> <KEGG_COMPOUND_ACCESSION>
C00392

> <KEGG_DRUG_ACCESSION>
D00062

> <KNAPSACK_ACCESSION>
C00001165

> <METACYC_ACCESSION>
MANNITOL

> <NIST_CHEMISTRY_WEBBOOK>
69-65-8

> <PDBECHEM_ACCESSION>
MTL

> <WIKIPEDIA_ACCESSION>
Mannitol

> <PUBMED_CITATION>
16901854; 17336832; 17979222; 22770225; 24643482; 25108762; 11784135; 12646037; 15658873; 15863337; 16854081; 17420133; 17827020; 17973471; 17983214; 18207412; 18220330

$$$$

Marvin  10310723422D          

  5  4  0  0  1  0            999 V2000
    0.3572   -0.2063    0.0000 C   0  0  3  0  0  0  0  0  0  0  0  0
    1.0717    0.2062    0.0000 O   0  0  0  0  0  0  0  0  0  0  0  0
   -0.3572    0.2063    0.0000 C   0  0  0  0  0  0  0  0  0  0  0  0
   -1.0717   -0.2062    0.0000 O   0  0  0  0  0  0  0  0  0  0  0  0
    0.3572   -1.0313    0.0000 C   0  0  0  0  0  0  0  0  0  0  0  0
  1  5  1  0  0  0  0
  2  1  1  0  0  0  0
  1  3  1  0  0  0  0
  4  3  1  0  0  0  0
M  END
> <ID>
CHEBI:16997

> <NAME>
propane-1,2-diol

> <DEFINITION>
The simplest member of the class of propane-1,2-diols, consisting of propane in which a hydrogen at position 1 and a hydrogen at position 2 are substituted by hydroxy groups. A colourless, viscous, hygroscopic, low-melting (−59°C) and high-boiling (188°C) liquid with low toxicity, it is used as a solvent, emulsifying agent, and antifreeze.

> <STAR>
3

> <SECONDARY_ID>
CHEBI:8469; CHEBI:14899

> <SYNONYM>
Propylene glycol; propane-1,2-diol; Propane-1,2-diol; PPD; monopropylene glycol; methylethylene glycol; methylethyl glycol; methyl glycol; MeCH(OH)CH2OH; isopropylene glycol; HOCH2CH(OH)Me; HOCH2CH(OH)CH3; CH3CH(OH)CH2OH; alpha-propyleneglycol; 2-hydroxypropanol; 1,2-Propylenglykol; 1,2-Propanediol; 1,2-dihydroxypropane

> <IUPAC_NAME>
propane-1,2-diol

> <FORMULA>
C3H8O2

> <MASS>
76.09442

> <MONOISOTOPIC_MASS>
76.05243

> <CHARGE>
0

> <SMILES>
CC(O)CO

> <INCHI>
InChI=1S/C3H8O2/c1-3(5)2-4/h3-5H,2H2,1H3

> <INCHIKEY>
DNIAPMSPPWPWGF-UHFFFAOYSA-N

> <CAS_REGISTRY_NUMBER>
57-55-6

> <REAXYS_REGISTRY_NUMBER>
1340498

> <CHEMIDPLUS>
57-55-6

> <DRUGBANK_ACCESSION>
DB01839

> <HMDB_ACCESSION>
HMDB0001881

> <KEGG_COMPOUND_ACCESSION>
C00583

> <KEGG_DRUG_ACCESSION>
D00078

> <KNAPSACK_ACCESSION>
C00007410

> <LINCS_ACCESSION>
LSM-36856

> <NIST_CHEMISTRY_WEBBOOK>
57-55-6

> <WIKIPEDIA_ACCESSION>
Propylene_glycol

> <PUBMED_CITATION>
15665701; 16078503; 18346395; 18845115; 21616561

$$$$
ChEBI
  Marvin  03150612212D          

 10  9  0  0  1  0            999 V2000
    4.7898   -3.1525    0.0000 C   0  0  0  0  0  0  0  0  0  0  0  0
    5.4990   -3.5740    0.0000 C   0  0  1  0  0  0  0  0  0  0  0  0
    6.2190   -3.1644    0.0000 C   0  0  2  0  0  0  0  0  0  0  0  0
    6.9282   -3.5859    0.0000 C   0  0  2  0  0  0  0  0  0  0  0  0
    4.0698   -3.5621    0.0000 O   0  0  0  0  0  0  0  0  0  0  0  0
    5.4990   -4.3990    0.0000 O   0  0  0  0  0  0  0  0  0  0  0  0
    6.2190   -2.3394    0.0000 O   0  0  0  0  0  0  0  0  0  0  0  0
    6.9282   -4.4109    0.0000 O   0  0  0  0  0  0  0  0  0  0  0  0
    7.6481   -3.1763    0.0000 C   0  0  0  0  0  0  0  0  0  0  0  0
    8.3626   -3.5888    0.0000 O   0  0  0  0  0  0  0  0  0  0  0  0
  5  1  1  0  0  0  0
  2  1  1  0  0  0  0
  2  6  1  1  0  0  0
  3  2  1  0  0  0  0
  3  7  1  1  0  0  0
  4  3  1  0  0  0  0
  4  8  1  1  0  0  0
  9  4  1  0  0  0  0
  9 10  1  0  0  0  0
M  END
> <ID>
CHEBI:17151

> <NAME>
xylitol

> <DEFINITION>
A pentitol (five-carbon sugar alcohol) having meso-configuration, being derived from xylose by reduction of the carbonyl group.

> <STAR>
3

> <SECONDARY_ID>
CHEBI:60939; CHEBI:46522; CHEBI:15328; CHEBI:253147; CHEBI:27339; CHEBI:10078

> <SYNONYM>
xylitol; Xylitol; xylite; Xylit; L-xylitol; D-XYLITOL; (2R,3R,4S)-Pentane-1,2,3,4,5-pentaol

> <IUPAC_NAME>
meso-xylitol; (2R,3r,4S)-pentane-1,2,3,4,5-pentol

> <FORMULA>
C5H12O5

> <MASS>
152.14580

> <MONOISOTOPIC_MASS>
152.06847

> <CHARGE>
0

> <SMILES>
OC[C@H](O)[C@@H](O)[C@H](O)CO

> <INCHI>
InChI=1S/C5H12O5/c6-1-3(8)5(10)4(9)2-7/h3-10H,1-2H2/t3-,4+,5+

> <INCHIKEY>
HEBKCHPVOIAQTA-SCDXWVJYSA-N

> <BEILSTEIN_REGISTRY_NUMBER>
1720523

> <CAS_REGISTRY_NUMBER>
87-99-0

> <GMELIN_REGISTRY_NUMBER>
82893

> <REAXYS_REGISTRY_NUMBER>
1720523

> <CHEMIDPLUS>
87-99-0

> <DRUGBANK_ACCESSION>
DB01904

> <HMDB_ACCESSION>
HMDB0002917

> <KEGG_COMPOUND_ACCESSION>
C00379

> <KEGG_DRUG_ACCESSION>
D00061

> <METACYC_ACCESSION>
XYLITOL

> <NIST_CHEMISTRY_WEBBOOK>
87-99-0

> <PDBECHEM_ACCESSION>
XYL

> <WIKIPEDIA_ACCESSION>
Xylitol

> <PUBMED_CITATION>
11154411; 11163479; 15377394; 16708791; 16901854; 17216457; 17216458; 17336832; 17979222; 18316079; 20030329; 22735334; 22791282; 23247825; 23287496; 23338824; 23589387; 23597921; 23615861; 23796483; 23916161; 23957303; 24012734; 24643482; 25108762; 12061879

$$$$

Marvin  02020822302D          

 22 26  0  0  1  0            999 V2000
    0.0000   -0.8250    0.0000 C   0  0  0  0  0  0  0  0  0  0  0  0
   -0.7145   -0.4125    0.0000 C   0  0  0  0  0  0  0  0  0  0  0  0
    0.7145   -0.4125    0.0000 C   0  0  0  0  0  0  0  0  0  0  0  0
   -0.7145    0.4125    0.0000 C   0  0  0  0  0  0  0  0  0  0  0  0
    0.7145    0.4125    0.0000 C   0  0  0  0  0  0  0  0  0  0  0  0
    0.0000    0.8250    0.0000 C   0  0  0  0  0  0  0  0  0  0  0  0
    0.0030   -1.6464    0.0000 C   0  0  2  0  0  0  0  0  0  0  0  0
    0.7109   -2.0631    0.0000 C   0  0  2  0  0  0  0  0  0  0  0  0
   -0.7127   -2.0511    0.0000 C   0  0  1  0  0  0  0  0  0  0  0  0
    1.4268   -1.6510    0.0000 C   0  0  1  0  0  0  0  0  0  0  0  0
    0.7067   -2.8808    0.0000 C   0  0  0  0  0  0  0  0  0  0  0  0
   -1.5371   -1.1745    0.0000 O   0  0  0  0  0  0  0  0  0  0  0  0
   -0.7206   -2.8689    0.0000 C   0  0  2  0  0  0  0  0  0  0  0  0
    1.4310   -0.8297    0.0000 C   0  0  0  0  0  0  0  0  0  0  0  0
    2.1419   -2.0715    0.0000 N   0  0  0  0  0  0  0  0  0  0  0  0
   -0.0128   -3.2891    0.0000 C   0  0  0  0  0  0  0  0  0  0  0  0
   -1.4365   -3.2845    0.0000 O   0  0  0  0  0  0  0  0  0  0  0  0
   -1.4262    0.8296    0.0000 O   0  0  0  0  0  0  0  0  0  0  0  0
    2.9416   -1.8530    0.0000 C   0  0  0  0  0  0  0  0  0  0  0  0
    1.4954   -2.6258    0.0000 H   0  0  0  0  0  0  0  0  0  0  0  0
    2.1397   -1.2341    0.0000 C   0  0  0  0  0  0  0  0  0  0  0  0
    0.7183   -1.2330    0.0000 C   0  0  0  0  0  0  0  0  0  0  0  0
  7  1  1  0  0  0  0
  1  2  1  0  0  0  0
  2 12  1  0  0  0  0
  1  3  2  0  0  0  0
  3 14  1  0  0  0  0
  2  4  2  0  0  0  0
  4 18  1  0  0  0  0
  3  5  1  0  0  0  0
  4  6  1  0  0  0  0
  5  6  2  0  0  0  0
  7  8  1  0  0  0  0
  7  9  1  0  0  0  0
  7 22  1  1  0  0  0
  8 10  1  0  0  0  0
  8 11  1  0  0  0  0
  8 20  1  1  0  0  0
  9 12  1  6  0  0  0
  9 13  1  0  0  0  0
 10 15  1  1  0  0  0
 10 14  1  0  0  0  0
 11 16  2  0  0  0  0
 13 17  1  6  0  0  0
 13 16  1  0  0  0  0
 15 19  1  0  0  0  0
 21 15  1  0  0  0  0
 22 21  1  0  0  0  0
M  END
> <ID>
CHEBI:17303

> <NAME>
morphine

> <DEFINITION>
A morphinane alkaloid that is a highly potent opiate analgesic psychoactive drug. Morphine acts directly on the central nervous system (CNS) to relieve pain but has a high potential for addiction, with tolerance and both physical and psychological dependence developing rapidly. Morphine is the most abundant opiate found in Papaver somniferum (the opium poppy).

> <STAR>
3

> <SECONDARY_ID>
CHEBI:44202; CHEBI:7001; CHEBI:14622; CHEBI:25419

> <SYNONYM>
morphium; morphinum; Morphine; Morphin; Morphia; morfina; (7R,7AS,12BS)-3-METHYL-2,3,4,4A,7,7A-HEXAHYDRO-1H-4,12-METHANO[1]BENZOFURO[3,2-E]ISOQUINOLINE-7,9-DIOL; (5R,6S,9R,13S,14R)-4,5-epoxy-N-methyl-7-morphinen-3,6-diol; (5alpha,6alpha)-didehydro-4,5-epoxy-17-methylmorphinan-3,6-diol; (5alpha,6alpha)-17-methyl-7,8-didehydro-4,5-epoxymorphinan-3,6-diol; (-)-morphine

> <IUPAC_NAME>
17-methyl-7,8-didehydro-4,5alpha-epoxymorphinan-3,6alpha-diol

> <FORMULA>
C17H19NO3

> <MASS>
285.33770

> <MONOISOTOPIC_MASS>
285.13649

> <CHARGE>
0

> <SMILES>
[H][C@]12C=C[C@H](O)[C@@H]3Oc4c(O)ccc5C[C@H]1N(C)CC[C@@]23c45

> <INCHI>
InChI=1S/C17H19NO3/c1-18-7-6-17-10-3-5-13(20)16(17)21-15-12(19)4-2-9(14(15)17)8-11(10)18/h2-5,10-11,13,16,19-20H,6-8H2,1H3/t10-,11+,13-,16-,17-/m0/s1

> <INCHIKEY>
BQJCRHHNABKAKU-KBQPJGBKSA-N

> <BEILSTEIN_REGISTRY_NUMBER>
93704

> <CAS_REGISTRY_NUMBER>
57-27-2

> <REAXYS_REGISTRY_NUMBER>
93704

> <CHEMIDPLUS>
57-27-2

> <DRUGBANK_ACCESSION>
DB00295

> <KEGG_COMPOUND_ACCESSION>
C01516

> <KEGG_DRUG_ACCESSION>
D08233

> <KNAPSACK_ACCESSION>
C00001889

> <METACYC_ACCESSION>
MORPHINE

> <NIST_CHEMISTRY_WEBBOOK>
57-27-2

> <PDB_ACCESSION>
1Q0Y

> <PDBECHEM_ACCESSION>
MOI

> <WIKIPEDIA_ACCESSION>
Morphine

> <PUBMED_CITATION>
12593758; 15019787; 17171884; 17667569; 19371311; 20071451; 23292329; 23325235; 23555556; 23927484; 23988259; 24096538; 24306419; 27735107; 27815868; 27866460; 29368335; 9231550

$$$$

Marvin  10160719272D          

 11 10  0  0  0  0            999 V2000
   -2.1434    0.2292    0.0000 C   0  0  0  0  0  0  0  0  0  0  0  0
   -1.4289   -0.1833    0.0000 C   0  0  0  0  0  0  0  0  0  0  0  0
    0.7145    0.2292    0.0000 C   0  0  0  0  0  0  0  0  0  0  0  0
    0.0000   -0.1833    0.0000 C   0  0  0  0  0  0  0  0  0  0  0  0
    1.4289   -0.1833    0.0000 C   0  0  0  0  0  0  0  0  0  0  0  0
   -0.7145    0.2292    0.0000 C   0  0  0  0  0  0  0  0  0  0  0  0
    2.1434    0.2292    0.0000 C   0  0  0  0  0  0  0  0  0  0  0  0
    2.8579   -0.1833    0.0000 O   0  0  0  0  0  0  0  0  0  0  0  0
   -2.8579   -0.1833    0.0000 C   0  0  0  0  0  0  0  0  0  0  0  0
    0.7144    1.0541    0.0000 C   0  0  0  0  0  0  0  0  0  0  0  0
   -2.1434    1.0541    0.0000 C   0  0  0  0  0  0  0  0  0  0  0  0
  1 11  1  0  0  0  0
  2  1  2  0  0  0  0
  3 10  1  0  0  0  0
  3  4  1  0  0  0  0
  3  5  2  0  0  0  0
  6  2  1  0  0  0  0
  4  6  1  0  0  0  0
  5  7  1  0  0  0  0
  7  8  1  0  0  0  0
  1  9  1  0  0  0  0
M  END
> <ID>
CHEBI:17447

> <NAME>
geraniol

> <DEFINITION>
A monoterpenoid consisting of two prenyl units linked head-to-tail and functionalised with a hydroxy group at its tail end.

> <STAR>
3

> <SECONDARY_ID>
CHEBI:5329; CHEBI:14297; CHEBI:24219

> <SYNONYM>
trans-geraniol; trans-3,7-dimethyl-2,6-octadien-1-ol; t-geraniol; lemonol; geranyl alcohol; Geraniol; 3,7-dimethyl-trans-2,6-octadien-1-ol; 2-trans-3,7-Dimethyl-2,6-octadien-1-ol; (E)-nerol; (E)-geraniol; (E)-3,7-dimethyl-2,6-octadien-1-ol; (2E)-geraniol; (2E)-3,7-dimethyl-2,6-octadien-1-ol

> <IUPAC_NAME>
(2E)-3,7-dimethylocta-2,6-dien-1-ol

> <FORMULA>
C10H18O

> <MASS>
154.24932

> <MONOISOTOPIC_MASS>
154.13577

> <CHARGE>
0

> <SMILES>
CC(C)=CCC\C(C)=C\CO

> <INCHI>
InChI=1S/C10H18O/c1-9(2)5-4-6-10(3)7-8-11/h5,7,11H,4,6,8H2,1-3H3/b10-7+

> <INCHIKEY>
GLZPCOQZEFWAFX-JXMROGBWSA-N

> <BEILSTEIN_REGISTRY_NUMBER>
1722456

> <CAS_REGISTRY_NUMBER>
106-24-1

> <GMELIN_REGISTRY_NUMBER>
185248

> <CHEMIDPLUS>
106-24-1

> <KEGG_COMPOUND_ACCESSION>
C01500

> <KNAPSACK_ACCESSION>
C00000845

> <LIPID_MAPS_INSTANCE_ACCESSION>
LMPR0102010016

> <NIST_CHEMISTRY_WEBBOOK>
106-24-1

> <WIKIPEDIA_ACCESSION>
Geraniol

> <PUBMED_CITATION>
18824010; 20573166; 23102596; 23108028; 23168261; 23200656; 23399806; 23415329; 23499697; 23510343

$$$$

Marvin  11190810352D          

  8  8  0  0  0  0            999 V2000
    0.0000   -0.8250    0.0000 N   0  0  0  0  0  0  0  0  0  0  0  0
   -0.7145   -0.4125    0.0000 C   0  0  0  0  0  0  0  0  0  0  0  0
   -0.7145    0.4125    0.0000 N   0  0  0  0  0  0  0  0  0  0  0  0
   -1.4289   -0.8250    0.0000 O   0  0  0  0  0  0  0  0  0  0  0  0
    0.0000    0.8250    0.0000 C   0  0  0  0  0  0  0  0  0  0  0  0
    0.0000    1.6500    0.0000 O   0  0  0  0  0  0  0  0  0  0  0  0
    0.7145    0.4125    0.0000 C   0  0  0  0  0  0  0  0  0  0  0  0
    0.7145   -0.4125    0.0000 C   0  0  0  0  0  0  0  0  0  0  0  0
  1  8  1  0  0  0  0
  1  2  1  0  0  0  0
  8  7  2  0  0  0  0
  2  3  1  0  0  0  0
  2  4  2  0  0  0  0
  7  5  1  0  0  0  0
  3  5  1  0  0  0  0
  5  6  2  0  0  0  0
M  END
> <ID>
CHEBI:17568

> <NAME>
uracil

> <DEFINITION>
A common and naturally occurring pyrimidine nucleobase in which the pyrimidine ring is substituted with two oxo groups at positions 2 and 4. Found in RNA, it base pairs with adenine and replaces thymine during DNA transcription.

> <STAR>
3

> <SECONDARY_ID>
CHEBI:46375; CHEBI:9882; CHEBI:15288; CHEBI:27210

> <SYNONYM>
Urazil; uracil; URACIL; Uracil; Ura; U; 2,4-Pyrimidinedione; 2,4-Dioxopyrimidine; 2,4(1H,3H)-pyrimidinedione

> <IUPAC_NAME>
pyrimidine-2,4(1H,3H)-dione

> <FORMULA>
C4H4N2O2

> <MASS>
112.08684

> <MONOISOTOPIC_MASS>
112.02728

> <CHARGE>
0

> <SMILES>
O=c1cc[nH]c(=O)[nH]1

> <INCHI>
InChI=1S/C4H4N2O2/c7-3-1-2-5-4(8)6-3/h1-2H,(H2,5,6,7,8)

> <INCHIKEY>
ISAKRJDGNUQOIC-UHFFFAOYSA-N

> <BEILSTEIN_REGISTRY_NUMBER>
606623

> <CAS_REGISTRY_NUMBER>
66-22-8

> <GMELIN_REGISTRY_NUMBER>
2896

> <REAXYS_REGISTRY_NUMBER>
606623

> <CHEMIDPLUS>
66-22-8

> <DRUGBANK_ACCESSION>
DB03419

> <HMDB_ACCESSION>
HMDB0000300

> <KEGG_COMPOUND_ACCESSION>
C00106

> <KEGG_DRUG_ACCESSION>
D00027

> <KNAPSACK_ACCESSION>
C00001513

> <METACYC_ACCESSION>
URACIL

> <NIST_CHEMISTRY_WEBBOOK>
66-22-8

> <PDBECHEM_ACCESSION>
URA

> <WIKIPEDIA_ACCESSION>
Uracil

> <PUBMED_CITATION>
11279060; 12855717; 15274295; 16834123; 17439666; 18533995; 18815805; 19175333; 22020693; 22074393; 22120518; 22171528; 22237209; 22299724; 22356544; 22447672; 22483865; 22567906; 22685418; 3654008

$$$$

Marvin  11200714172D          

  8  8  0  0  0  0            999 V2000
    0.0000    0.8250    0.0000 C   0  0  0  0  0  0  0  0  0  0  0  0
    0.7145    0.4125    0.0000 C   0  0  0  0  0  0  0  0  0  0  0  0
    0.7145   -0.4125    0.0000 C   0  0  0  0  0  0  0  0  0  0  0  0
    0.0000   -0.8250    0.0000 C   0  0  0  0  0  0  0  0  0  0  0  0
   -0.7145   -0.4125    0.0000 C   0  0  0  0  0  0  0  0  0  0  0  0
   -0.7145    0.4125    0.0000 C   0  0  0  0  0  0  0  0  0  0  0  0
    0.0000   -1.6500    0.0000 N   0  0  0  0  0  0  0  0  0  0  0  0
    0.0000    1.6500    0.0000 O   0  0  0  0  0  0  0  0  0  0  0  0
  8  1  1  0  0  0  0
  2  1  2  0  0  0  0
  2  3  1  0  0  0  0
  3  4  2  0  0  0  0
  7  4  1  0  0  0  0
  4  5  1  0  0  0  0
  1  6  1  0  0  0  0
  6  5  2  0  0  0  0
M  END
> <ID>
CHEBI:17602

> <NAME>
4-aminophenol

> <DEFINITION>
An amino phenol (one of the three possible isomers) which has the single amino substituent located para to the phenolic -OH group.

> <STAR>
3

> <SECONDARY_ID>
CHEBI:40037; CHEBI:20395; CHEBI:1856; CHEBI:12001

> <SYNONYM>
p-hydroxyaniline; p-Aminophenol; 4-Hydroxyaniline; 4-aminophenol; 4-AMINOPHENOL; 4-Aminophenol; 4-Aminobenzenol

> <IUPAC_NAME>
4-aminophenol

> <FORMULA>
C6H7NO

> <MASS>
109.12592

> <MONOISOTOPIC_MASS>
109.05276

> <CHARGE>
0

> <SMILES>
Nc1ccc(O)cc1

> <INCHI>
InChI=1S/C6H7NO/c7-5-1-3-6(8)4-2-5/h1-4,8H,7H2

> <INCHIKEY>
PLIKAWJENQZMHA-UHFFFAOYSA-N

> <BEILSTEIN_REGISTRY_NUMBER>
385836

> <CAS_REGISTRY_NUMBER>
123-30-8

> <GMELIN_REGISTRY_NUMBER>
2926

> <REAXYS_REGISTRY_NUMBER>
385836

> <CHEMIDPLUS>
123-30-8

> <HMDB_ACCESSION>
HMDB0001169

> <KEGG_COMPOUND_ACCESSION>
C02372

> <METACYC_ACCESSION>
CPD-259

> <NIST_CHEMISTRY_WEBBOOK>
123-30-8

> <PDBECHEM_ACCESSION>
4NL

> <WIKIPEDIA_ACCESSION>
4-Aminophenol

> <PUBMED_CITATION>
11304127; 1395635; 22770225; 7179289

$$$$

Marvin  10020616502D          

 29 32  0  0  1  0            999 V2000
    0.7146   -1.2375    0.0000 C   0  0  0  0  0  0  0  0  0  0  0  0
    0.0000   -1.6499    0.0000 C   0  0  0  0  0  0  0  0  0  0  0  0
   -0.7144   -1.2375    0.0000 C   0  0  0  0  0  0  0  0  0  0  0  0
   -1.4289   -1.6499    0.0000 C   0  0  0  0  0  0  0  0  0  0  0  0
   -2.1434   -0.4125    0.0000 C   0  0  0  0  0  0  0  0  0  0  0  0
   -1.4289    0.0000    0.0000 C   0  0  0  0  0  0  0  0  0  0  0  0
    0.7146    1.2375    0.0000 C   0  0  0  0  0  0  0  0  0  0  0  0
    2.6986    0.4125    0.0000 C   0  0  0  0  0  0  0  0  0  0  0  0
    2.2137   -0.2549    0.0000 C   0  0  0  0  0  0  0  0  0  0  0  0
    0.0000    0.0000    0.0000 C   0  0  2  0  0  0  0  0  0  0  0  0
    0.0000   -0.8250    0.0000 H   0  0  0  0  0  0  0  0  0  0  0  0
    1.4290    0.0000    0.0000 C   0  0  1  0  0  0  0  0  0  0  0  0
    1.4290   -0.8250    0.0000 H   0  0  0  0  0  0  0  0  0  0  0  0
    0.7146   -0.4125    0.0000 C   0  0  2  0  0  0  0  0  0  0  0  0
    0.7146    0.4125    0.0000 H   0  0  0  0  0  0  0  0  0  0  0  0
    1.4290    0.8250    0.0000 C   0  0  1  0  0  0  0  0  0  0  0  0
    2.2137    1.0800    0.0000 C   0  0  1  0  0  0  0  0  0  0  0  0
   -2.1434   -1.2375    0.0000 C   0  0  0  0  0  0  0  0  0  0  0  0
   -2.8579   -1.6500    0.0000 O   0  0  0  0  0  0  0  0  0  0  0  0
    0.0000    0.8250    0.0000 C   0  0  1  0  0  0  0  0  0  0  0  0
   -0.7145    1.2375    0.0000 O   0  0  0  0  0  0  0  0  0  0  0  0
    2.2137    1.9050    0.0000 C   0  0  0  0  0  0  0  0  0  0  0  0
    1.4992    2.3175    0.0000 O   0  0  0  0  0  0  0  0  0  0  0  0
    2.9282    2.3175    0.0000 C   0  0  0  0  0  0  0  0  0  0  0  0
    3.6427    1.9050    0.0000 O   0  0  0  0  0  0  0  0  0  0  0  0
    2.9282    1.4925    0.0000 O   0  0  0  0  0  0  0  0  0  0  0  0
    1.4290    1.6500    0.0000 C   0  0  0  0  0  0  0  0  0  0  0  0
   -0.7144   -0.4125    0.0000 C   0  0  2  0  0  0  0  0  0  0  0  0
   -0.7144    0.4125    0.0000 C   0  0  0  0  0  0  0  0  0  0  0  0
 14  1  1  0  0  0  0
 14 10  1  0  0  0  0
 14 12  1  0  0  0  0
  1  2  1  0  0  0  0
  2  3  1  0  0  0  0
  3  4  2  0  0  0  0
  3 28  1  0  0  0  0
  4 18  1  0  0  0  0
 18  5  1  0  0  0  0
  5  6  1  0  0  0  0
  6 28  1  0  0  0  0
 28 10  1  0  0  0  0
 10 20  1  0  0  0  0
 20  7  1  0  0  0  0
  7 16  1  0  0  0  0
 16 17  1  0  0  0  0
 16 12  1  0  0  0  0
 17  8  1  0  0  0  0
  8  9  1  0  0  0  0
  9 12  1  0  0  0  0
 10 11  1  6  0  0  0
 12 13  1  6  0  0  0
 14 15  1  1  0  0  0
 17 26  1  6  0  0  0
 17 22  1  0  0  0  0
 22 24  1  0  0  0  0
 18 19  2  0  0  0  0
 20 21  1  1  0  0  0
 22 23  2  0  0  0  0
 24 25  1  0  0  0  0
 16 27  1  1  0  0  0
 28 29  1  1  0  0  0
M  END
> <ID>
CHEBI:17650

> <NAME>
cortisol

> <DEFINITION>
A 17α-hydroxy-C21-steroid that is pregn-4-ene substituted by oxo groups at positions 3 and 20 and hydroxy groups at positions 11, 17 and 21. Cortisol is a corticosteroid hormone or glucocorticoid produced by zona fasciculata of the adrenal cortex, which is a part of the adrenal gland. It is usually referred to as the "stress hormone" as it is involved in response to stress and anxiety, controlled by corticotropin-releasing hormone (CRH). It increases blood pressure and blood sugar, and reduces immune responses

> <STAR>
3

> <SECONDARY_ID>
CHEBI:3893; CHEBI:14023; CHEBI:24633; CHEBI:58221

> <SYNONYM>
Reichstein's substance M; Kendall's compound F; Hydrocortisone; cortisol; Cortisol; 4-pregnen-11beta,17alpha,21-triol-3,20-dione; 17-hydroxycorticosterone; 11beta-hydrocortisone; 11beta,17alpha,21-trihydroxy-4-pregnene-3,20-dione; 11beta,17alpha,21-Trihydroxy-4-pregnene-3,20-dione; (11beta)-11,17,21-trihydroxypregn-4-ene-3,20-dione

> <IUPAC_NAME>
11beta,17,21-trihydroxypregn-4-ene-3,20-dione

> <INN>
hydrocortisonum; hydrocortisone; hidrocortisona

> <FORMULA>
C21H30O5

> <MASS>
362.45990

> <MONOISOTOPIC_MASS>
362.20932

> <CHARGE>
0

> <SMILES>
[H][C@@]12CCC3=CC(=O)CC[C@]3(C)[C@@]1([H])[C@@H](O)C[C@@]1(C)[C@@]2([H])CC[C@]1(O)C(=O)CO

> <INCHI>
InChI=1S/C21H30O5/c1-19-7-5-13(23)9-12(19)3-4-14-15-6-8-21(26,17(25)11-22)20(15,2)10-16(24)18(14)19/h9,14-16,18,22,24,26H,3-8,10-11H2,1-2H3/t14-,15-,16-,18+,19-,20-,21-/m0/s1

> <INCHIKEY>
JYGXADMDTFJGBT-VWUMJDOOSA-N

> <BEILSTEIN_REGISTRY_NUMBER>
1354819

> <CAS_REGISTRY_NUMBER>
50-23-7

> <CHEMIDPLUS>
50-23-7

> <DRUGBANK_ACCESSION>
DB00741

> <KEGG_COMPOUND_ACCESSION>
C00735

> <KEGG_DRUG_ACCESSION>
D00088

> <LINCS_ACCESSION>
LSM-5980

> <LIPID_MAPS_INSTANCE_ACCESSION>
LMST02030001

> <NIST_CHEMISTRY_WEBBOOK>
50-23-7

> <PDBECHEM_ACCESSION>
HCY

> <WIKIPEDIA_ACCESSION>
Hydrocortisone

> <PUBMED_CITATION>
10438974; 2268561

$$$$
ChEBI
  Marvin  01041116492D          

 26 27  0  0  1  0            999 V2000
   15.3136  -10.1398    0.0000 N   0  0  0  0  0  0  0  0  0  0  0  0
   15.3136   -9.3134    0.0000 C   0  0  1  0  0  0  0  0  0  0  0  0
   16.0261  -10.5680    0.0000 C   0  0  0  0  0  0  0  0  0  0  0  0
   14.4874  -10.1398    0.0000 C   0  0  0  0  0  0  0  0  0  0  0  0
   14.4874   -9.3134    0.0000 C   0  0  1  0  0  0  0  0  0  0  0  0
   16.0261   -8.9004    0.0000 S   0  0  0  0  0  0  0  0  0  0  0  0
   16.7500  -10.1472    0.0000 C   0  0  0  0  0  0  0  0  0  0  0  0
   16.0186  -11.3942    0.0000 C   0  0  0  0  0  0  0  0  0  0  0  0
   13.9037  -10.7196    0.0000 O   0  0  0  0  0  0  0  0  0  0  0  0
   13.7729   -8.9009    0.0000 N   0  0  0  0  0  0  0  0  0  0  0  0
   16.7500   -9.3134    0.0000 C   0  0  0  0  0  0  0  0  0  0  0  0
   17.4626  -10.5567    0.0000 C   0  0  0  0  0  0  0  0  0  0  0  0
   15.3023  -11.7960    0.0000 O   0  0  0  0  0  0  0  0  0  0  0  0
   16.7311  -11.8074    0.0000 O   0  0  0  0  0  0  0  0  0  0  0  0
   13.0595   -9.3086    0.0000 C   0  0  0  0  0  0  0  0  0  0  0  0
   12.3479   -8.8976    0.0000 C   0  0  0  0  0  0  0  0  0  0  0  0
   13.0575  -10.1348    0.0000 O   0  0  0  0  0  0  0  0  0  0  0  0
   11.6306   -9.3052    0.0000 C   0  0  0  0  0  0  0  0  0  0  0  0
   10.9190   -8.8942    0.0000 C   0  0  0  0  0  0  0  0  0  0  0  0
   10.2055   -9.3019    0.0000 C   0  0  2  0  0  0  0  0  0  0  0  0
    9.4902   -8.8909    0.0000 C   0  0  0  0  0  0  0  0  0  0  0  0
   10.2035  -10.1281    0.0000 N   0  0  0  0  0  0  0  0  0  0  0  0
    8.7766   -9.3022    0.0000 O   0  0  0  0  0  0  0  0  0  0  0  0
    9.4958   -8.0645    0.0000 O   0  0  0  0  0  0  0  0  0  0  0  0
   15.3136   -8.4910    0.0000 H   0  0  0  0  0  0  0  0  0  0  0  0
   18.1771  -10.1442    0.0000 O   0  0  0  0  0  0  0  0  0  0  0  0
  1  2  1  0  0  0  0
  1  3  1  0  0  0  0
  1  4  1  0  0  0  0
  2  5  1  0  0  0  0
  2  6  1  0  0  0  0
  3  7  2  0  0  0  0
  3  8  1  0  0  0  0
  4  9  2  0  0  0  0
  6 11  1  0  0  0  0
  7 12  1  0  0  0  0
  8 13  1  0  0  0  0
  8 14  2  0  0  0  0
 10 15  1  0  0  0  0
 15 16  1  0  0  0  0
 15 17  2  0  0  0  0
 16 18  1  0  0  0  0
 18 19  1  0  0  0  0
 19 20  1  0  0  0  0
 20 21  1  0  0  0  0
 20 22  1  1  0  0  0
 21 23  1  0  0  0  0
 21 24  2  0  0  0  0
  4  5  1  0  0  0  0
  7 11  1  0  0  0  0
  2 25  1  6  0  0  0
 12 26  1  0  0  0  0
  5 10  1  1  0  0  0
M  END
> <ID>
CHEBI:18065

> <NAME>
deacetylcephalosporin C

> <DEFINITION>
A 3-hydroxymethylcephalosporin having a (5-amino-5-carboxypentanoyl)amino group at the 7-position.

> <STAR>
3

> <SECONDARY_ID>
CHEBI:4336; CHEBI:14100; CHEBI:23564

> <SYNONYM>
Deacetylcephalosporin C

> <IUPAC_NAME>
(6R,7R)-7-{[(5R)-5-amino-5-carboxypentanoyl]amino}-3-(hydroxymethyl)-8-oxo-5-thia-1-azabicyclo[4.2.0]oct-2-ene-2-carboxylic acid

> <FORMULA>
C14H19N3O7S

> <MASS>
373.38200

> <MONOISOTOPIC_MASS>
373.09437

> <CHARGE>
0

> <SMILES>
[H][C@]12SCC(CO)=C(N1C(=O)[C@H]2NC(=O)CCC[C@@H](N)C(O)=O)C(O)=O

> <INCHI>
InChI=1S/C14H19N3O7S/c15-7(13(21)22)2-1-3-8(19)16-9-11(20)17-10(14(23)24)6(4-18)5-25-12(9)17/h7,9,12,18H,1-5,15H2,(H,16,19)(H,21,22)(H,23,24)/t7-,9-,12-/m1/s1

> <INCHIKEY>
XWCFYHBHOFBVIV-JWKOBGCHSA-N

> <CAS_REGISTRY_NUMBER>
1476-46-6

> <KEGG_COMPOUND_ACCESSION>
C03112

$$$$

Marvin  04131109242D          

 11 10  0  0  0  0            999 V2000
   10.8729   -8.5531    0.0000 C   0  0  0  0  0  0  0  0  0  0  0  0
   11.5873   -8.1406    0.0000 N   0  3  0  0  0  0  0  0  0  0  0  0
   10.1584   -8.1406    0.0000 C   0  0  0  0  0  0  0  0  0  0  0  0
    9.4440   -8.5531    0.0000 O   0  0  0  0  0  0  0  0  0  0  0  0
    8.7296   -8.1406    0.0000 P   0  0  0  0  0  0  0  0  0  0  0  0
    8.3171   -8.8552    0.0000 O   0  0  0  0  0  0  0  0  0  0  0  0
    9.1421   -7.4262    0.0000 O   0  0  0  0  0  0  0  0  0  0  0  0
    8.0151   -7.7282    0.0000 O   0  0  0  0  0  0  0  0  0  0  0  0
   12.3018   -8.5531    0.0000 C   0  0  0  0  0  0  0  0  0  0  0  0
   11.5873   -7.3156    0.0000 C   0  0  0  0  0  0  0  0  0  0  0  0
   12.3849   -7.9319    0.0000 C   0  0  0  0  0  0  0  0  0  0  0  0
  1  2  1  0  0  0  0
  1  3  1  0  0  0  0
  3  4  1  0  0  0  0
  4  5  1  0  0  0  0
  5  6  1  0  0  0  0
  5  7  1  0  0  0  0
  5  8  2  0  0  0  0
  2  9  1  0  0  0  0
  2 10  1  0  0  0  0
  2 11  1  0  0  0  0
M  CHG  1   2   1
M  END
> <ID>
CHEBI:18132

> <NAME>
phosphocholine

> <DEFINITION>
The phosphate of choline; and the parent compound of the phosphocholine family.

> <STAR>
3

> <SECONDARY_ID>
CHEBI:3667; CHEBI:44707; CHEBI:12720; CHEBI:23214; CHEBI:13986

> <SYNONYM>
Trimethyl(2-(phosphonooxy)ethyl)ammonium; Phosphorylcholine; Phosphoryl-choline; Phosphocholine; PHOSPHOCHOLINE; O-phosphocholine; O-Phosphocholine; N-Trimethyl-2-aminoethylphosphonate; ChoP; Choline phosphate

> <IUPAC_NAME>
N,N,N-trimethyl-2-(phosphonooxy)ethanaminium

> <FORMULA>
C5H15NO4P

> <MASS>
184.15070

> <MONOISOTOPIC_MASS>
184.07332

> <CHARGE>
1

> <SMILES>
C[N+](C)(C)CCOP(O)(O)=O

> <INCHI>
InChI=1S/C5H14NO4P/c1-6(2,3)4-5-10-11(7,8)9/h4-5H2,1-3H3,(H-,7,8,9)/p+1

> <INCHIKEY>
YHHSONZFOIEMCP-UHFFFAOYSA-O

> <BEILSTEIN_REGISTRY_NUMBER>
1784889

> <CAS_REGISTRY_NUMBER>
107-73-3

> <GMELIN_REGISTRY_NUMBER>
2594827

> <REAXYS_REGISTRY_NUMBER>
1784889

> <CHEMIDPLUS>
107-73-3

> <DRUGBANK_ACCESSION>
DB03945

> <HMDB_ACCESSION>
HMDB0001565

> <KEGG_COMPOUND_ACCESSION>
C00588

> <KNAPSACK_ACCESSION>
C00007299

> <PDBECHEM_ACCESSION>
PC

> <PUBMED_CITATION>
10456913; 10596404; 10811914; 11437497; 11908950; 15267227; 15583011; 18684852; 19369878; 19748321; 19758165; 23572077; 24012478; 6420466; 6790611; 7450902

$$$$

Marvin  03090714232D          

 25 26  0  0  1  0            999 V2000
    1.5395   -1.2375    0.0000 N   0  0  0  0  0  0  0  0  0  0  0  0
    2.3241   -1.4925    0.0000 C   0  0  1  0  0  0  0  0  0  0  0  0
    0.7145   -0.4125    0.0000 C   0  0  2  0  0  0  0  0  0  0  0  0
    2.3241   -0.1576    0.0000 S   0  0  0  0  0  0  0  0  0  0  0  0
    2.5790   -2.2771    0.0000 C   0  0  0  0  0  0  0  0  0  0  0  0
    0.0000    0.0000    0.0000 N   0  0  0  0  0  0  0  0  0  0  0  0
    3.3860   -2.4486    0.0000 O   0  0  0  0  0  0  0  0  0  0  0  0
    2.0270   -2.8902    0.0000 O   0  0  0  0  0  0  0  0  0  0  0  0
   -0.7145   -0.4125    0.0000 C   0  0  0  0  0  0  0  0  0  0  0  0
   -1.4289    0.0000    0.0000 C   0  0  0  0  0  0  0  0  0  0  0  0
   -2.8579    0.0000    0.0000 C   0  0  0  0  0  0  0  0  0  0  0  0
   -3.5723   -0.4125    0.0000 C   0  0  1  0  0  0  0  0  0  0  0  0
   -4.2868    0.0000    0.0000 C   0  0  0  0  0  0  0  0  0  0  0  0
   -5.0013   -0.4125    0.0000 O   0  0  0  0  0  0  0  0  0  0  0  0
   -4.2868    0.8250    0.0000 O   0  0  0  0  0  0  0  0  0  0  0  0
   -2.1434   -0.4125    0.0000 C   0  0  0  0  0  0  0  0  0  0  0  0
   -0.7145   -1.2375    0.0000 O   0  0  0  0  0  0  0  0  0  0  0  0
   -3.5723   -1.2375    0.0000 N   0  0  0  0  0  0  0  0  0  0  0  0
    0.7145   -1.2375    0.0000 C   0  0  0  0  0  0  0  0  0  0  0  0
    0.1311   -1.8209    0.0000 O   0  0  0  0  0  0  0  0  0  0  0  0
    3.5235   -0.4125    0.0000 C   0  0  0  0  0  0  0  0  0  0  0  0
    2.8090   -0.8250    0.0000 C   0  0  3  0  0  0  0  0  0  0  0  0
    3.5235   -1.2375    0.0000 C   0  0  0  0  0  0  0  0  0  0  0  0
    1.5395   -0.4125    0.0000 C   0  0  1  0  0  0  0  0  0  0  0  0
    1.5395    0.4125    0.0000 H   0  0  0  0  0  0  0  0  0  0  0  0
 24  1  1  0  0  0  0
  1  2  1  0  0  0  0
  1 19  1  0  0  0  0
 24  3  1  0  0  0  0
 24  4  1  0  0  0  0
  2 22  1  0  0  0  0
  2  5  1  6  0  0  0
  3  6  1  1  0  0  0
  5  7  1  0  0  0  0
  5  8  2  0  0  0  0
  6  9  1  0  0  0  0
  9 10  1  0  0  0  0
  9 17  2  0  0  0  0
 10 16  1  0  0  0  0
 16 11  1  0  0  0  0
 11 12  1  0  0  0  0
 12 13  1  0  0  0  0
 12 18  1  6  0  0  0
 13 14  1  0  0  0  0
 13 15  2  0  0  0  0
  3 19  1  0  0  0  0
  4 22  1  0  0  0  0
 19 20  2  0  0  0  0
 22 21  1  0  0  0  0
 22 23  1  0  0  0  0
 24 25  1  6  0  0  0
M  END
> <ID>
CHEBI:18165

> <NAME>
isopenicillin N

> <STAR>
3

> <SECONDARY_ID>
CHEBI:43447; CHEBI:6036; CHEBI:14472

> <SYNONYM>
ISOPENICILLIN N; Isopenicillin N; (2S,5R,6R)-6-[(5S)-5-amino-5-carboxypentanamido]-3,3-dimethyl-7-oxo-4-thia-1-azabicyclo[3.2.0]heptane-2-carboxylic acid

> <IUPAC_NAME>
6beta-[(5S)-5-amino-5-carboxypentanamido]-2,2-dimethylpenam-3alpha-carboxylic acid

> <FORMULA>
C14H21N3O6S

> <MASS>
359.39916

> <MONOISOTOPIC_MASS>
359.11511

> <CHARGE>
0

> <SMILES>
[H][C@]12SC(C)(C)[C@@H](N1C(=O)[C@H]2NC(=O)CCC[C@H](N)C(O)=O)C(O)=O

> <INCHI>
InChI=1S/C14H21N3O6S/c1-14(2)9(13(22)23)17-10(19)8(11(17)24-14)16-7(18)5-3-4-6(15)12(20)21/h6,8-9,11H,3-5,15H2,1-2H3,(H,16,18)(H,20,21)(H,22,23)/t6-,8+,9-,11+/m0/s1

> <INCHIKEY>
MIFYHUACUWQUKT-GTQWGBSQSA-N

> <BEILSTEIN_REGISTRY_NUMBER>
5311821

> <DRUGBANK_ACCESSION>
DB03550

> <KEGG_COMPOUND_ACCESSION>
C05557

> <KNAPSACK_ACCESSION>
C00000778

> <PDBECHEM_ACCESSION>
IP1

$$$$

Marvin  03090714272D          

 25 26  0  0  1  0            999 V2000
    1.5395   -1.2375    0.0000 N   0  0  0  0  0  0  0  0  0  0  0  0
    2.3241   -1.4925    0.0000 C   0  0  1  0  0  0  0  0  0  0  0  0
    0.7145   -0.4125    0.0000 C   0  0  2  0  0  0  0  0  0  0  0  0
    2.3241   -0.1576    0.0000 S   0  0  0  0  0  0  0  0  0  0  0  0
    2.5790   -2.2771    0.0000 C   0  0  0  0  0  0  0  0  0  0  0  0
    0.0000    0.0000    0.0000 N   0  0  0  0  0  0  0  0  0  0  0  0
    3.3860   -2.4486    0.0000 O   0  0  0  0  0  0  0  0  0  0  0  0
    2.0270   -2.8902    0.0000 O   0  0  0  0  0  0  0  0  0  0  0  0
   -0.7145   -0.4125    0.0000 C   0  0  0  0  0  0  0  0  0  0  0  0
   -1.4289    0.0000    0.0000 C   0  0  0  0  0  0  0  0  0  0  0  0
   -2.8579    0.0000    0.0000 C   0  0  0  0  0  0  0  0  0  0  0  0
   -3.5723   -0.4125    0.0000 C   0  0  2  0  0  0  0  0  0  0  0  0
   -4.2868    0.0000    0.0000 C   0  0  0  0  0  0  0  0  0  0  0  0
   -5.0013   -0.4125    0.0000 O   0  0  0  0  0  0  0  0  0  0  0  0
   -4.2868    0.8250    0.0000 O   0  0  0  0  0  0  0  0  0  0  0  0
   -2.1434   -0.4125    0.0000 C   0  0  0  0  0  0  0  0  0  0  0  0
   -0.7145   -1.2375    0.0000 O   0  0  0  0  0  0  0  0  0  0  0  0
   -3.5723   -1.2375    0.0000 N   0  0  0  0  0  0  0  0  0  0  0  0
    0.7145   -1.2375    0.0000 C   0  0  0  0  0  0  0  0  0  0  0  0
    0.1311   -1.8209    0.0000 O   0  0  0  0  0  0  0  0  0  0  0  0
    3.5235   -0.4125    0.0000 C   0  0  0  0  0  0  0  0  0  0  0  0
    2.8090   -0.8250    0.0000 C   0  0  3  0  0  0  0  0  0  0  0  0
    3.5235   -1.2375    0.0000 C   0  0  0  0  0  0  0  0  0  0  0  0
    1.5395   -0.4125    0.0000 C   0  0  1  0  0  0  0  0  0  0  0  0
    1.5395    0.4125    0.0000 H   0  0  0  0  0  0  0  0  0  0  0  0
 24  1  1  0  0  0  0
  1  2  1  0  0  0  0
  1 19  1  0  0  0  0
 24  3  1  0  0  0  0
 24  4  1  0  0  0  0
  2 22  1  0  0  0  0
  2  5  1  6  0  0  0
  3  6  1  1  0  0  0
  5  7  1  0  0  0  0
  5  8  2  0  0  0  0
  6  9  1  0  0  0  0
  9 10  1  0  0  0  0
  9 17  2  0  0  0  0
 10 16  1  0  0  0  0
 16 11  1  0  0  0  0
 11 12  1  0  0  0  0
 12 13  1  0  0  0  0
 12 18  1  1  0  0  0
 13 14  1  0  0  0  0
 13 15  2  0  0  0  0
  3 19  1  0  0  0  0
  4 22  1  0  0  0  0
 19 20  2  0  0  0  0
 22 21  1  0  0  0  0
 22 23  1  0  0  0  0
 24 25  1  6  0  0  0
M  END
> <ID>
CHEBI:18203

> <NAME>
penicillin N

> <STAR>
3

> <SECONDARY_ID>
CHEBI:14744; CHEBI:7964; CHEBI:25867

> <SYNONYM>
Penicillin N; cephalosporin N; adicillin; (2S,5R,6R)-6-[(5R)-5-amino-5-carboxypentanamido]-3,3-dimethyl-7-oxo-4-thia-1-azabicyclo[3.2.0]heptane-2-carboxylic acid

> <IUPAC_NAME>
6beta-[(5R)-5-amino-5-carboxypentanamido]-2,2-dimethylpenam-3alpha-carboxylic acid

> <FORMULA>
C14H21N3O6S

> <MASS>
359.39916

> <MONOISOTOPIC_MASS>
359.11511

> <CHARGE>
0

> <SMILES>
[H][C@]12SC(C)(C)[C@@H](N1C(=O)[C@H]2NC(=O)CCC[C@@H](N)C(O)=O)C(O)=O

> <INCHI>
InChI=1S/C14H21N3O6S/c1-14(2)9(13(22)23)17-10(19)8(11(17)24-14)16-7(18)5-3-4-6(15)12(20)21/h6,8-9,11H,3-5,15H2,1-2H3,(H,16,18)(H,20,21)(H,22,23)/t6-,8-,9+,11-/m1/s1

> <INCHIKEY>
MIFYHUACUWQUKT-GPUHXXMPSA-N

> <BEILSTEIN_REGISTRY_NUMBER>
56934

> <CAS_REGISTRY_NUMBER>
525-94-0

> <CHEMIDPLUS>
525-94-0

> <KEGG_COMPOUND_ACCESSION>
C06564

> <KNAPSACK_ACCESSION>
C00000780

$$$$

Ketcher 04141614102D 1   1.00000     0.00000     0

 24 26  0     1  0            999 V2000
   23.0878  -11.9199    0.0000 N   0  0  0  0  0  0  0  0  0  0  0  0
   24.0388  -10.6110    0.0000 S   0  0  0  0  0  0  0  0  0  0  0  0
   25.4927  -11.9199    0.0000 C   0  0  0  0  0  0  0  0  0  0  0  0
   24.6266  -11.4198    0.0000 C   0  0  0  0  0  0  0  0  0  0  0  0
   25.4927  -10.9198    0.0000 C   0  0  0  0  0  0  0  0  0  0  0  0
   24.0388  -12.2291    0.0000 C   0  0  0  0  0  0  0  0  0  0  0  0
   25.3260  -13.3879    0.0000 O   0  0  0  0  0  0  0  0  0  0  0  0
   24.3479  -13.1800    0.0000 C   0  0  0  0  0  0  0  0  0  0  0  0
   23.6787  -13.9232    0.0000 O   0  0  0  0  0  0  0  0  0  0  0  0
   22.0879  -10.9198    0.0000 C   0  0  0  0  0  0  0  0  0  0  0  0
   21.2217  -10.4200    0.0000 N   0  0  0  0  0  0  0  0  0  0  0  0
   20.3557  -10.9198    0.0000 C   0  0  0  0  0  0  0  0  0  0  0  0
   20.3557  -11.9199    0.0000 O   0  0  0  0  0  0  0  0  0  0  0  0
   19.4896  -10.4200    0.0000 C   0  0  0  0  0  0  0  0  0  0  0  0
   18.6233   -8.9202    0.0000 C   0  0  0  0  0  0  0  0  0  0  0  0
   18.6229   -7.9202    0.0000 C   0  0  0  0  0  0  0  0  0  0  0  0
   19.4888   -7.4200    0.0000 C   0  0  0  0  0  0  0  0  0  0  0  0
   20.3551   -7.9198    0.0000 C   0  0  0  0  0  0  0  0  0  0  0  0
   20.3553   -8.9199    0.0000 C   0  0  0  0  0  0  0  0  0  0  0  0
   19.4893   -9.4201    0.0000 C   0  0  0  0  0  0  0  0  0  0  0  0
   22.0879  -11.9199    0.0000 C   0  0  0  0  0  0  0  0  0  0  0  0
   21.3807  -12.6270    0.0000 O   0  0  0  0  0  0  0  0  0  0  0  0
   23.0878  -10.9198    0.0000 C   0  0  0  0  0  0  0  0  0  0  0  0
   23.0878   -9.9200    0.0000 H   0  0  0  0  0  0  0  0  0  0  0  0
 23 10  1  0     0  0
 10 21  1  0     0  0
 21  1  1  0     0  0
  1  6  1  0     0  0
 23  1  1  0     0  0
  2 23  1  0     0  0
  2  4  1  0     0  0
  6  4  1  0     0  0
  4  3  1  0     0  0
  4  5  1  0     0  0
  6  8  1  6     0  0
  8  7  1  0     0  0
  8  9  2  0     0  0
 10 11  1  1     0  0
 11 12  1  0     0  0
 12 14  1  0     0  0
 12 13  2  0     0  0
 14 20  1  0     0  0
 15 16  1  0     0  0
 15 20  2  0     0  0
 16 17  2  0     0  0
 17 18  1  0     0  0
 18 19  2  0     0  0
 19 20  1  0     0  0
 21 22  2  0     0  0
 23 24  1  6     0  0
M  END
> <ID>
CHEBI:18208

> <NAME>
benzylpenicillin

> <DEFINITION>
A penicillin in which the substituent at position 6 of the penam ring is a phenylacetamido group.

> <STAR>
3

> <SECONDARY_ID>
CHEBI:25866; CHEBI:45073; CHEBI:7962; CHEBI:14743

> <SYNONYM>
PG; PENICILLIN G; Penicillin G; PCG; free penicillin II; benzylpenicillinic acid; Benzylpenicillin; benzyl benicillin; bensylpenicillin; 6-(2-phenylacetamido)penicillanic acid; (2S,5R,6R)-3,3-dimethyl-7-oxo-6-(phenylacetamido)-4-thia-1-azabicyclo[3.2.0]heptane-2-carboxylic acid

> <IUPAC_NAME>
2,2-dimethyl-6beta-(phenylacetamido)penam-3alpha-carboxylic acid

> <INN>
benzylpenicillinum; benzylpenicilline; benzylpenicillin; bencilpenicilina

> <FORMULA>
C16H18N2O4S

> <MASS>
334.392

> <MONOISOTOPIC_MASS>
334.09873

> <CHARGE>
0

> <SMILES>
N12C([C@H]([C@]1(SC([C@@H]2C(O)=O)(C)C)[H])NC(CC3=CC=CC=C3)=O)=O

> <INCHI>
InChI=1S/C16H18N2O4S/c1-16(2)12(15(21)22)18-13(20)11(14(18)23-16)17-10(19)8-9-6-4-3-5-7-9/h3-7,11-12,14H,8H2,1-2H3,(H,17,19)(H,21,22)/t11-,12+,14-/m1/s1

> <INCHIKEY>
JGSARLDLIJGVTE-MBNYWOFBSA-N

> <BEILSTEIN_REGISTRY_NUMBER>
44740

> <CAS_REGISTRY_NUMBER>
61-33-6

> <GMELIN_REGISTRY_NUMBER>
781913

> <REAXYS_REGISTRY_NUMBER>
44740

> <CHEMIDPLUS>
61-33-6

> <DRUGBANK_ACCESSION>
DB01053

> <HMDB_ACCESSION>
HMDB0015186

> <KEGG_COMPOUND_ACCESSION>
C05551

> <KEGG_DRUG_ACCESSION>
D02336

> <LINCS_ACCESSION>
LSM-3229

> <PDBECHEM_ACCESSION>
PNN

> <WIKIPEDIA_ACCESSION>
Benzylpenicillin

> <PUBMED_CITATION>
10930630; 11431418; 11906332; 12569987; 12850488; 1384868; 16033609; 1709917; 2083978; 24485692; 24631718; 25998949; 27731424; 29017833; 29355985; 6161899; 7602118; 7716788

$$$$

Marvin  09031009322D          

 37 39  0  0  1  0            999 V2000
   12.1367   -4.6795    0.0000 O   0  0  0  0  0  0  0  0  0  0  0  0
   11.4224   -5.0920    0.0000 C   0  0  0  0  0  0  0  0  0  0  0  0
   11.4224   -5.9170    0.0000 C   0  0  1  0  0  0  0  0  0  0  0  0
   10.7079   -4.6795    0.0000 O   0  0  0  0  0  0  0  0  0  0  0  0
   10.7079   -6.3295    0.0000 C   0  0  2  0  0  0  0  0  0  0  0  0
    9.9934   -5.0920    0.0000 C   0  0  1  0  0  0  0  0  0  0  0  0
    9.9934   -5.9170    0.0000 C   0  0  1  0  0  0  0  0  0  0  0  0
   12.1367   -6.3295    0.0000 N   0  0  0  0  0  0  0  0  0  0  0  0
   10.7078   -7.1545    0.0000 O   0  0  0  0  0  0  0  0  0  0  0  0
    9.2790   -6.3295    0.0000 O   0  0  0  0  0  0  0  0  0  0  0  0
    9.2790   -4.6795    0.0000 C   0  0  0  0  0  0  0  0  0  0  0  0
    8.5644   -5.0920    0.0000 O   0  0  0  0  0  0  0  0  0  0  0  0
   12.1367   -7.1545    0.0000 C   0  0  0  0  0  0  0  0  0  0  0  0
   12.8512   -7.5670    0.0000 O   0  0  0  0  0  0  0  0  0  0  0  0
   11.4224   -7.5670    0.0000 C   0  0  0  0  0  0  0  0  0  0  0  0
    8.5645   -6.7420    0.0000 C   0  0  1  0  0  0  0  0  0  0  0  0
    8.5645   -7.5670    0.0000 C   0  0  1  0  0  0  0  0  0  0  0  0
    7.8500   -6.3295    0.0000 O   0  0  0  0  0  0  0  0  0  0  0  0
    7.8500   -7.9796    0.0000 C   0  0  2  0  0  0  0  0  0  0  0  0
    7.1356   -6.7420    0.0000 C   0  0  1  0  0  0  0  0  0  0  0  0
    7.1356   -7.5670    0.0000 C   0  0  2  0  0  0  0  0  0  0  0  0
    9.2790   -7.9796    0.0000 O   0  0  0  0  0  0  0  0  0  0  0  0
    7.8499   -8.8046    0.0000 O   0  0  0  0  0  0  0  0  0  0  0  0
    6.4210   -7.9796    0.0000 O   0  0  0  0  0  0  0  0  0  0  0  0
    6.4210   -6.3295    0.0000 C   0  0  0  0  0  0  0  0  0  0  0  0
    5.7067   -6.7420    0.0000 O   0  0  0  0  0  0  0  0  0  0  0  0
    7.1354   -9.2170    0.0000 C   0  0  2  0  0  0  0  0  0  0  0  0
    7.1354  -10.0420    0.0000 C   0  0  1  0  0  0  0  0  0  0  0  0
    6.4210   -8.8046    0.0000 O   0  0  0  0  0  0  0  0  0  0  0  0
    6.4210  -10.4545    0.0000 C   0  0  2  0  0  0  0  0  0  0  0  0
    5.7066   -9.2170    0.0000 C   0  0  1  0  0  0  0  0  0  0  0  0
    5.7066  -10.0420    0.0000 C   0  0  2  0  0  0  0  0  0  0  0  0
    7.8499  -10.4545    0.0000 O   0  0  0  0  0  0  0  0  0  0  0  0
    6.4210  -11.2795    0.0000 O   0  0  0  0  0  0  0  0  0  0  0  0
    4.9921  -10.4545    0.0000 O   0  0  0  0  0  0  0  0  0  0  0  0
    4.9921   -8.8046    0.0000 C   0  0  0  0  0  0  0  0  0  0  0  0
    4.2776   -9.2170    0.0000 O   0  0  0  0  0  0  0  0  0  0  0  0
  2  3  1  0  0  0  0
  2  4  1  0  0  0  0
  3  5  1  0  0  0  0
  4  6  1  0  0  0  0
  5  7  1  0  0  0  0
  6  7  1  0  0  0  0
  2  1  1  0  0  0  0
  3  8  1  6  0  0  0
  5  9  1  1  0  0  0
  7 10  1  6  0  0  0
  6 11  1  1  0  0  0
 12 11  1  0  0  0  0
 14 13  2  0  0  0  0
 15 13  1  0  0  0  0
  8 13  1  0  0  0  0
 16 17  1  0  0  0  0
 16 18  1  0  0  0  0
 17 19  1  0  0  0  0
 18 20  1  0  0  0  0
 19 21  1  0  0  0  0
 20 21  1  0  0  0  0
 16 10  1  1  0  0  0
 17 22  1  6  0  0  0
 19 23  1  1  0  0  0
 21 24  1  1  0  0  0
 20 25  1  1  0  0  0
 26 25  1  0  0  0  0
 27 28  1  0  0  0  0
 27 29  1  0  0  0  0
 28 30  1  0  0  0  0
 29 31  1  0  0  0  0
 30 32  1  0  0  0  0
 31 32  1  0  0  0  0
 27 23  1  6  0  0  0
 28 33  1  6  0  0  0
 30 34  1  1  0  0  0
 32 35  1  1  0  0  0
 31 36  1  1  0  0  0
 37 36  1  0  0  0  0
M  END
> <ID>
CHEBI:18217

> <NAME>
alpha-D-Gal-(1->3)-beta-D-Gal-(1->4)-D-GlcNAc

> <DEFINITION>
An amino trisaccharide consisting of two D-galactose residues, linked α(1→3), and an N-acetyl-D-glucosamine residue, linked β(1→4), at the reducing end.

> <STAR>
3

> <SECONDARY_ID>
CHEBI:60182; CHEBI:22379; CHEBI:10236; CHEBI:12311

> <SYNONYM>
Galalpha1-3Galbeta1-4GlcNAc; gal-alpha-1,3-gal-beta-1,4-GlcNAc; alphaGal1-3betaGal1-4GlcNAc; alpha-gal trisaccharide; alpha-gal; alpha-D-Galp-(1->3)-beta-D-Galp-(1->4)-D-GlcpNAc; alpha-D-Galp-(1->3)-beta-D-Galp-(1->4)-D-GlcNAc; alpha-D-Galactosyl-1,3-beta-D-galactosyl-1,4-N-acetyl-D-glucosamine; Alpha-D-galactosyl-1,3-beta-D-galactosyl-1,4-N-acetyl-D-glucosamine; (Gal)2 (GlcNAc)1

> <IUPAC_NAME>
alpha-D-galactopyranosyl-(1->3)-beta-D-galactopyranosyl-(1->4)-2-acetamido-2-deoxy-D-glucopyranose

> <FORMULA>
C20H35NO16; C20H35NO16

> <MASS>
545.48900

> <MONOISOTOPIC_MASS>
545.19558

> <CHARGE>
0

> <SMILES>
CC(=O)N[C@H]1C(O)O[C@H](CO)[C@@H](O[C@@H]2O[C@H](CO)[C@H](O)[C@H](O[C@H]3O[C@H](CO)[C@H](O)[C@H](O)[C@H]3O)[C@H]2O)[C@@H]1O

> <INCHI>
InChI=1S/C20H35NO16/c1-5(25)21-9-12(28)16(8(4-24)33-18(9)32)36-20-15(31)17(11(27)7(3-23)35-20)37-19-14(30)13(29)10(26)6(2-22)34-19/h6-20,22-24,26-32H,2-4H2,1H3,(H,21,25)/t6-,7-,8-,9-,10+,11+,12-,13+,14-,15-,16-,17+,18?,19-,20+/m1/s1

> <INCHIKEY>
NNISLDGFPWIBDF-MPRBLYSKSA-N

> <BEILSTEIN_REGISTRY_NUMBER>
5322979

> <REAXYS_REGISTRY_NUMBER>
5322979

> <KEGG_COMPOUND_ACCESSION>
C04847

> <KEGG_GLYCAN_ACCESSION>
G00304

> <PUBMED_CITATION>
10096519; 10355731; 11549456; 12009948; 12544864; 16442513; 27261450; 28472163; 9741457; 17991151; 19913595

$$$$

Marvin  11170919132D          

 12 12  0  0  0  0            999 V2000
   13.3890   -9.2137    0.0000 C   0  0  0  0  0  0  0  0  0  0  0  0
   13.3890   -8.3887    0.0000 C   0  0  0  0  0  0  0  0  0  0  0  0
   14.1035   -9.6261    0.0000 C   0  0  0  0  0  0  0  0  0  0  0  0
   12.6746   -9.6261    0.0000 O   0  0  0  0  0  0  0  0  0  0  0  0
   14.1035   -7.9762    0.0000 C   0  0  0  0  0  0  0  0  0  0  0  0
   12.6746   -7.9762    0.0000 O   0  0  0  0  0  0  0  0  0  0  0  0
   14.8178   -9.2137    0.0000 C   0  0  0  0  0  0  0  0  0  0  0  0
   12.6746  -10.4511    0.0000 C   0  0  0  0  0  0  0  0  0  0  0  0
   14.8178   -8.3887    0.0000 C   0  0  0  0  0  0  0  0  0  0  0  0
   15.5323   -9.6261    0.0000 C   0  0  0  0  0  0  0  0  0  0  0  0
   16.2474   -9.2137    0.0000 C   0  0  0  0  0  0  0  0  0  0  0  0
   16.9626   -9.6261    0.0000 C   0  0  0  0  0  0  0  0  0  0  0  0
  1  2  1  0  0  0  0
  1  3  2  0  0  0  0
  1  4  1  0  0  0  0
  2  5  2  0  0  0  0
  2  6  1  0  0  0  0
  3  7  1  0  0  0  0
  4  8  1  0  0  0  0
  5  9  1  0  0  0  0
  7  9  2  0  0  0  0
  7 10  1  0  0  0  0
 10 11  2  0  0  0  0
 11 12  1  4  0  0  0
M  END
> <ID>
CHEBI:18224

> <NAME>
isoeugenol

> <DEFINITION>
A phenylpropanoid that is an isomer of eugenol in which the allyl substituent is replaced by a prop-1-enyl group.

> <STAR>
3

> <SECONDARY_ID>
CHEBI:14466; CHEBI:6007

> <SYNONYM>
Propenylguaiacol; isoeugenol; Isoeugenol; 4-Propenylguaiacol; 4-Hydroxy-3-methoxypropenylbenzene; 3-Methoxy-4-hydroxypropenylbenzene; 2-Methoxy-4-propenylphenol; 1-Hydroxy-2-methoxy-4-propenylbenzene; 1-Hydroxy-2-methoxy-4-propen-1-ylbenzene

> <IUPAC_NAME>
2-methoxy-4-(prop-1-en-1-yl)phenol

> <FORMULA>
C10H12O2

> <MASS>
164.20110

> <MONOISOTOPIC_MASS>
164.08373

> <CHARGE>
0

> <SMILES>
COc1cc(C=CC)ccc1O

> <INCHI>
InChI=1S/C10H12O2/c1-3-4-8-5-6-9(11)10(7-8)12-2/h3-7,11H,1-2H3

> <INCHIKEY>
BJIOGJUNALELMI-UHFFFAOYSA-N

> <BEILSTEIN_REGISTRY_NUMBER>
1909602

> <CAS_REGISTRY_NUMBER>
97-54-1

> <GMELIN_REGISTRY_NUMBER>
2235523

> <REAXYS_REGISTRY_NUMBER>
1909602

> <CHEMIDPLUS>
97-54-1

> <KEGG_COMPOUND_ACCESSION>
C10469

> <NIST_CHEMISTRY_WEBBOOK>
97-54-1

> <WIKIPEDIA_ACCESSION>
Isoeugenol

> <PUBMED_CITATION>
11033063; 17573874; 17698059; 18416757; 21969073; 21989800; 22613214; 22671430; 22686307; 22827268; 23047101; 23161090; 23281757; 23286982; 23306890; 23391906; 23627552; 29079364; 9084914

$$$$
ChEBI


 25 26  0  0  1  0  0  0  0  0  1 V2000
   13.9325   -9.2253    0.0000 N   0  0  0  0  0  0  0  0  0  0  0  0
   13.9325   -8.4735    0.0000 C   0  0  0  0  0  0  0  0  0  0  0  0
   14.5808   -9.6149    0.0000 C   0  0  0  0  0  0  0  0  0  0  0  0
   13.1808   -9.2253    0.0000 C   0  0  0  0  0  0  0  0  0  0  0  0
   13.1808   -8.4735    0.0000 C   0  0  0  0  0  0  0  0  0  0  0  0
   14.5808   -8.0977    0.0000 S   0  0  0  0  0  0  0  0  0  0  0  0
   15.2394   -9.2321    0.0000 C   0  0  0  0  0  0  0  0  0  0  0  0
   14.5739  -10.3666    0.0000 C   0  0  0  0  0  0  0  0  0  0  0  0
   12.6498   -9.7528    0.0000 O   0  0  0  0  0  0  0  0  0  0  0  0
   12.0118   -8.1597    0.0000 N   0  0  0  0  0  0  0  0  0  0  0  0
   15.2394   -8.4735    0.0000 C   0  0  0  0  0  0  0  0  0  0  0  0
   15.8877   -9.6046    0.0000 C   0  0  0  0  0  0  0  0  0  0  0  0
   13.9222  -10.7322    0.0000 O   0  0  0  0  0  0  0  0  0  0  0  0
   15.2222  -10.7425    0.0000 O   0  0  0  0  0  0  0  0  0  0  0  0
   11.3636   -7.7873    0.0000 C   0  0  0  0  0  0  0  0  0  0  0  0
   10.7153   -8.1597    0.0000 C   0  0  0  0  0  0  0  0  0  0  0  0
   11.3636   -7.0356    0.0000 O   0  0  0  0  0  0  0  0  0  0  0  0
   10.0636   -7.7873    0.0000 C   0  0  0  0  0  0  0  0  0  0  0  0
    9.4153   -8.1597    0.0000 C   0  0  0  0  0  0  0  0  0  0  0  0
    8.7670   -7.7873    0.0000 C   0  0  0  0  0  0  0  0  0  0  0  0
    8.1153   -8.1597    0.0000 C   0  0  0  0  0  0  0  0  0  0  0  0
    8.7670   -7.0356    0.0000 N   0  0  0  0  0  0  0  0  0  0  0  0
    7.4670   -7.7839    0.0000 O   0  0  0  0  0  0  0  0  0  0  0  0
    8.1187   -8.9115    0.0000 O   0  0  0  0  0  0  0  0  0  0  0  0
   13.9325   -7.7252    0.0000 H   0  0  0  0  0  0  0  0  0  0  0  0
  1  2  1  0  0  0  0
  1  3  1  0  0  0  0
  1  4  1  0  0  0  0
  2  5  1  0  0  0  0
  2  6  1  0  0  0  0
  3  7  2  0  0  0  0
  3  8  1  0  0  0  0
  4  9  2  0  0  0  0
  5 10  1  1  0  0  0
  6 11  1  0  0  0  0
  7 12  1  0  0  0  0
  8 13  1  0  0  0  0
  8 14  2  0  0  0  0
 10 15  1  0  0  0  0
 15 16  1  0  0  0  0
 15 17  2  0  0  0  0
 16 18  1  0  0  0  0
 18 19  1  0  0  0  0
 19 20  1  0  0  0  0
 20 21  1  0  0  0  0
 20 22  1  6  0  0  0
 21 23  1  0  0  0  0
 21 24  2  0  0  0  0
  4  5  1  0  0  0  0
  7 11  1  0  0  0  0
  2 25  1  6  0  0  0
M  END
> <ID>
CHEBI:18229

> <NAME>
deacetoxycephalosporin C

> <STAR>
3

> <SECONDARY_ID>
CHEBI:14097; CHEBI:4334

> <SYNONYM>
Desacetoxycephalosphorin C; Deacetoxycephalosporin C; De(acetyloxy)cephalosporin C; DAOC

> <IUPAC_NAME>
(6R,7R)-7-{[(5R)-5-amino-5-carboxypentanoyl]amino}-3-methyl-8-oxo-5-thia-1-azabicyclo[4.2.0]oct-2-ene-2-carboxylic acid

> <FORMULA>
C14H19N3O6S

> <MASS>
357.38328

> <MONOISOTOPIC_MASS>
357.09946

> <CHARGE>
0

> <SMILES>
[H][C@]12SCC(C)=C(N1C(=O)[C@H]2NC(=O)CCC[C@@H](N)C(O)=O)C(O)=O

> <INCHI>
InChI=1S/C14H19N3O6S/c1-6-5-24-12-9(11(19)17(12)10(6)14(22)23)16-8(18)4-2-3-7(15)13(20)21/h7,9,12H,2-5,15H2,1H3,(H,16,18)(H,20,21)(H,22,23)/t7-,9-,12-/m1/s1

> <INCHIKEY>
NNQIJOYQWYKBOW-JWKOBGCHSA-N

> <CAS_REGISTRY_NUMBER>
26924-74-3

> <CHEMIDPLUS>
26924-74-3

> <DRUGBANK_ACCESSION>
DB03938

> <KEGG_COMPOUND_ACCESSION>
C06565

> <PDBECHEM_ACCESSION>
P1C

$$$$

Marvin  11190916552D          

 31 33  0  0  1  0            999 V2000
   19.2756  -10.5160    0.0000 C   0  0  2  0  0  0  0  0  0  0  0  0
   19.2756  -11.3410    0.0000 N   0  0  0  0  0  0  0  0  0  0  0  0
   19.9769  -11.7536    0.0000 C   0  0  0  0  0  0  0  0  0  0  0  0
   20.6782  -11.3410    0.0000 C   0  0  0  0  0  0  0  0  0  0  0  0
   20.6782  -10.5160    0.0000 C   0  0  0  0  0  0  0  0  0  0  0  0
   19.9769  -10.1035    0.0000 S   0  0  0  0  0  0  0  0  0  0  0  0
   18.4506  -10.5160    0.0000 C   0  0  1  0  0  0  0  0  0  0  0  0
   18.4506  -11.3410    0.0000 C   0  0  0  0  0  0  0  0  0  0  0  0
   17.7079  -10.1035    0.0000 N   0  0  0  0  0  0  0  0  0  0  0  0
   17.0066  -10.5160    0.0000 C   0  0  0  0  0  0  0  0  0  0  0  0
   17.0066  -11.3410    0.0000 O   0  0  0  0  0  0  0  0  0  0  0  0
   17.7079  -11.7536    0.0000 O   0  0  0  0  0  0  0  0  0  0  0  0
   16.3053  -10.1035    0.0000 C   0  0  0  0  0  0  0  0  0  0  0  0
   21.4207  -11.7536    0.0000 C   0  0  0  0  0  0  0  0  0  0  0  0
   15.5628  -10.5160    0.0000 C   0  0  0  0  0  0  0  0  0  0  0  0
   19.2756   -9.6909    0.0000 H   0  0  0  0  0  0  0  0  0  0  0  0
   14.9440  -10.0209    0.0000 C   0  0  0  0  0  0  0  0  0  0  0  0
   14.2428  -10.4747    0.0000 S   0  0  0  0  0  0  0  0  0  0  0  0
   14.4903  -11.2998    0.0000 C   0  0  0  0  0  0  0  0  0  0  0  0
   15.3153  -11.2998    0.0000 N   0  0  0  0  0  0  0  0  0  0  0  0
   16.3053   -9.2784    0.0000 N   0  0  0  0  0  0  0  0  0  0  0  0
   19.9769  -12.5786    0.0000 C   0  0  0  0  0  0  0  0  0  0  0  0
   20.6782  -12.9912    0.0000 O   0  0  0  0  0  0  0  0  0  0  0  0
   19.2344  -12.9912    0.0000 O   0  0  0  0  0  0  0  0  0  0  0  0
   13.9952  -11.9598    0.0000 N   0  0  0  0  0  0  0  0  0  0  0  0
   22.1309  -11.3277    0.0000 O   0  0  0  0  0  0  0  0  0  0  0  0
   22.8505  -11.7274    0.0000 C   0  0  0  0  0  0  0  0  0  0  0  0
   23.5487  -11.3086    0.0000 C   0  0  0  0  0  0  0  0  0  0  0  0
   22.8505  -12.5525    0.0000 O   0  0  0  0  0  0  0  0  0  0  0  0
   17.0121   -8.8741    0.0000 O   0  0  0  0  0  0  0  0  0  0  0  0
   17.0121   -8.0490    0.0000 C   0  0  0  0  0  0  0  0  0  0  0  0
  1  2  1  0  0  0  0
  2  3  1  0  0  0  0
  3  4  2  0  0  0  0
  4  5  1  0  0  0  0
  5  6  1  0  0  0  0
  1  6  1  0  0  0  0
  1  7  1  0  0  0  0
  7  8  1  0  0  0  0
  2  8  1  0  0  0  0
  7  9  1  1  0  0  0
  9 10  1  0  0  0  0
 10 11  2  0  0  0  0
  8 12  2  0  0  0  0
 10 13  1  0  0  0  0
  4 14  1  0  0  0  0
 13 15  1  0  0  0  0
  1 16  1  6  0  0  0
 15 17  2  0  0  0  0
 17 18  1  0  0  0  0
 18 19  1  0  0  0  0
 19 20  2  0  0  0  0
 15 20  1  0  0  0  0
 13 21  2  0  0  0  0
  3 22  1  0  0  0  0
 22 23  1  0  0  0  0
 22 24  2  0  0  0  0
 19 25  1  0  0  0  0
 14 26  1  0  0  0  0
 26 27  1  0  0  0  0
 27 28  1  0  0  0  0
 27 29  2  0  0  0  0
 21 30  1  0  0  0  0
 30 31  1  0  0  0  0
M  END
> <ID>
CHEBI:204928

> <NAME>
cefotaxime

> <DEFINITION>
A cephalosporin compound having acetoxymethyl and [2-(2-amino-1,3-thiazol-4-yl)-2-(methoxyimino)acetyl]amino side groups.

> <STAR>
3

> <SECONDARY_ID>
CHEBI:112504; CHEBI:41475; CHEBI:3497

> <SYNONYM>
Cephotaxime; (6R,7R,Z)-3-(acetoxymethyl)-7-(2-(2-aminothiazol-4-yl)-2-(methoxyimino)acetamido)-8-oxo-5-thia-1-aza-bicyclo[4.2.0]oct-2-ene-2-carboxylic acid; (6R,7R)-3-Acetoxymethyl-7-{2-(2-amino-thiazol-4-yl)-2-[(Z)-methoxyimino]-acetylamino}-8-oxo-5-thia-1-aza-bicyclo[4.2.0]oct-2-ene-2-carboxylic acid; (6R,7R)-3-(acetoxymethyl)-7-{[(2Z)-2-(2-amino-1,3-thiazol-4-yl)-2-(methoxyimino)acetyl]amino}-8-oxo-5-thia-1-azabicyclo[4.2.0]oct-2-ene-2-carboxylic acid

> <IUPAC_NAME>
3-(acetoxymethyl)-7beta-{[(2Z)-2-(2-amino-1,3-thiazol-4-yl)-2-(methoxyimino)acetyl]amino}-3,4-didehydrocepham-4-carboxylic acid

> <INN>
cefotaximum; cefotaxime; cefotaxima

> <FORMULA>
C16H17N5O7S2

> <MASS>
455.46500

> <MONOISOTOPIC_MASS>
455.05694

> <CHARGE>
0

> <SMILES>
[H][C@]12SCC(COC(C)=O)=C(N1C(=O)[C@H]2NC(=O)C(=N/OC)\c1csc(N)n1)C(O)=O

> <INCHI>
InChI=1S/C16H17N5O7S2/c1-6(22)28-3-7-4-29-14-10(13(24)21(14)11(7)15(25)26)19-12(23)9(20-27-2)8-5-30-16(17)18-8/h5,10,14H,3-4H2,1-2H3,(H2,17,18)(H,19,23)(H,25,26)/b20-9-/t10-,14-/m1/s1

> <INCHIKEY>
GPRBEKHLDVQUJE-QSWIMTSFSA-N

> <BEILSTEIN_REGISTRY_NUMBER>
1096643

> <CAS_REGISTRY_NUMBER>
63527-52-6

> <REAXYS_REGISTRY_NUMBER>
1096643

> <CHEMIDPLUS>
63527-52-6

> <DRUGBANK_ACCESSION>
DB00493

> <KEGG_COMPOUND_ACCESSION>
C06885

> <KEGG_DRUG_ACCESSION>
D07647

> <PDBECHEM_ACCESSION>
CE3

> <WIKIPEDIA_ACCESSION>
Cefotaxime

> <PUBMED_CITATION>
11034276; 11061623; 1384868; 14512220; 15164972; 15361989; 15969234; 17006042; 17386217; 18611527; 19741292; 21425867; 24038683; 24211456; 29017833; 9131470; 10866367; 11677129; 1635063; 12833570; 1502708

$$$$

Marvin  11170915292D          

 29 31  0  0  1  0            999 V2000
   13.3092   -3.1472    0.0000 C   0  0  2  0  0  0  0  0  0  0  0  0
   13.3092   -3.9723    0.0000 N   0  0  0  0  0  0  0  0  0  0  0  0
   14.0237   -4.3848    0.0000 C   0  0  0  0  0  0  0  0  0  0  0  0
   14.7382   -3.9723    0.0000 C   0  0  0  0  0  0  0  0  0  0  0  0
   14.7382   -3.1472    0.0000 C   0  0  0  0  0  0  0  0  0  0  0  0
   14.0237   -2.7347    0.0000 S   0  0  0  0  0  0  0  0  0  0  0  0
   12.4840   -3.1472    0.0000 C   0  0  1  0  0  0  0  0  0  0  0  0
   12.4840   -3.9723    0.0000 C   0  0  0  0  0  0  0  0  0  0  0  0
   11.7696   -2.7347    0.0000 N   0  0  0  0  0  0  0  0  0  0  0  0
   11.0550   -3.1472    0.0000 C   0  0  0  0  0  0  0  0  0  0  0  0
   11.0550   -3.9723    0.0000 O   0  0  0  0  0  0  0  0  0  0  0  0
   11.7696   -4.3848    0.0000 O   0  0  0  0  0  0  0  0  0  0  0  0
   10.3406   -2.7347    0.0000 C   0  0  0  0  0  0  0  0  0  0  0  0
   15.4637   -4.3914    0.0000 C   0  0  0  0  0  0  0  0  0  0  0  0
   14.0237   -5.2097    0.0000 C   0  0  0  0  0  0  0  0  0  0  0  0
   13.2992   -5.6280    0.0000 O   0  0  0  0  0  0  0  0  0  0  0  0
   14.7282   -5.6166    0.0000 O   0  0  0  0  0  0  0  0  0  0  0  0
    9.6144   -3.1542    0.0000 C   0  0  0  0  0  0  0  0  0  0  0  0
   13.3092   -2.3215    0.0000 H   0  0  0  0  0  0  0  0  0  0  0  0
   16.1811   -3.9773    0.0000 O   0  0  0  0  0  0  0  0  0  0  0  0
   16.8954   -4.3899    0.0000 C   0  0  0  0  0  0  0  0  0  0  0  0
    8.9470   -2.6693    0.0000 S   0  0  0  0  0  0  0  0  0  0  0  0
    8.2796   -3.1542    0.0000 C   0  0  0  0  0  0  0  0  0  0  0  0
    8.5345   -3.9388    0.0000 C   0  0  0  0  0  0  0  0  0  0  0  0
    9.3595   -3.9388    0.0000 C   0  0  0  0  0  0  0  0  0  0  0  0
   17.6100   -3.9776    0.0000 N   0  0  0  0  0  0  0  0  0  0  0  0
   16.8952   -5.2149    0.0000 O   0  0  0  0  0  0  0  0  0  0  0  0
   12.6976   -2.3504    0.0000 O   0  0  0  0  0  0  0  0  0  0  0  0
   12.2851   -1.6359    0.0000 C   0  0  0  0  0  0  0  0  0  0  0  0
  1  2  1  0  0  0  0
  2  3  1  0  0  0  0
  3  4  2  0  0  0  0
  4  5  1  0  0  0  0
  5  6  1  0  0  0  0
  1  6  1  0  0  0  0
  1  7  1  0  0  0  0
  7  8  1  0  0  0  0
  2  8  1  0  0  0  0
  7  9  1  1  0  0  0
  9 10  1  0  0  0  0
 10 11  2  0  0  0  0
  8 12  2  0  0  0  0
 10 13  1  0  0  0  0
  4 14  1  0  0  0  0
  3 15  1  0  0  0  0
 15 16  2  0  0  0  0
 15 17  1  0  0  0  0
 13 18  1  0  0  0  0
  1 19  1  6  0  0  0
 14 20  1  0  0  0  0
 20 21  1  0  0  0  0
 25 18  2  0  0  0  0
 22 18  1  0  0  0  0
 22 23  1  0  0  0  0
 23 24  2  0  0  0  0
 24 25  1  0  0  0  0
 21 26  1  0  0  0  0
 21 27  2  0  0  0  0
  7 28  1  0  0  0  0
 28 29  1  0  0  0  0
M  END
> <ID>
CHEBI:209807

> <NAME>
cefoxitin

> <DEFINITION>
A semisynthetic cephamycin antibiotic which, in addition to the methoxy group at the 7α position, has 2-thienylacetamido and carbamoyloxymethyl side-groups. It is resistant to β-lactamase.

> <STAR>
3

> <SECONDARY_ID>
CHEBI:41436; CHEBI:471714; CHEBI:3500; CHEBI:658070

> <SYNONYM>
Rephoxitin; CFX; Cephoxitin; Cefoxitin; (6R,7S)-3-[(carbamoyloxy)methyl]-7-methoxy-8-oxo-7-[(2-thienylacetyl)amino]-5-thia-1-azabicyclo[4.2.0]oct-2-ene-2-carboxylic acid

> <IUPAC_NAME>
3-[(carbamoyloxy)methyl]-7alpha-methoxy-7beta-[(thiophen-2-yl)acetamido]-3,4-didehydrocepham-4-carboxylic acid; (6R,7S)-4-[(carbamoyloxy)methyl]-7-methoxy-8-oxo-7-[(thiophen-2-enyl)acetamido]-5-thia-1-azabicyclo[4.2.0]oct-2-ene-2-carboxylic acid

> <INN>
ceftoxitin; cefoxitinum; cefoxitine; cefoxitina; cefoxitin

> <FORMULA>
C16H17N3O7S2

> <MASS>
427.45200

> <MONOISOTOPIC_MASS>
427.05079

> <CHARGE>
0

> <SMILES>
[H][C@]12SCC(COC(N)=O)=C(N1C(=O)[C@]2(NC(=O)Cc1cccs1)OC)C(O)=O

> <INCHI>
InChI=1S/C16H17N3O7S2/c1-25-16(18-10(20)5-9-3-2-4-27-9)13(23)19-11(12(21)22)8(6-26-15(17)24)7-28-14(16)19/h2-4,14H,5-7H2,1H3,(H2,17,24)(H,18,20)(H,21,22)/t14-,16+/m1/s1

> <INCHIKEY>
WZOZEZRFJCJXNZ-ZBFHGGJFSA-N

> <BEILSTEIN_REGISTRY_NUMBER>
4216947

> <CAS_REGISTRY_NUMBER>
35607-66-0

> <REAXYS_REGISTRY_NUMBER>
4216947

> <CHEMIDPLUS>
35607-66-0

> <DRUGBANK_ACCESSION>
DB01331

> <HMDB_ACCESSION>
HMDB0015426

> <KEGG_COMPOUND_ACCESSION>
C06887

> <KEGG_DRUG_ACCESSION>
D02345

> <LINCS_ACCESSION>
LSM-5786

> <PDBECHEM_ACCESSION>
CFX

> <WIKIPEDIA_ACCESSION>
Cefoxitin

> <PUBMED_CITATION>
17043131; 17178800; 17220412; 17353248; 17387156; 29017833; 8360877; 2083978; 12569987; 17923492; 18056283; 18070972

$$$$

Marvin  01101112032D          

 21 22  0  0  0  0            999 V2000
   12.0795   -3.6403    0.0000 O   0  0  0  0  0  0  0  0  0  0  0  0
    7.7927   -4.4651    0.0000 C   0  0  0  0  0  0  0  0  0  0  0  0
    7.0783   -4.8775    0.0000 C   0  0  0  0  0  0  0  0  0  0  0  0
    7.0783   -5.7025    0.0000 C   0  0  0  0  0  0  0  0  0  0  0  0
    7.7927   -6.1152    0.0000 C   0  0  0  0  0  0  0  0  0  0  0  0
    8.5071   -4.8775    0.0000 C   0  0  0  0  0  0  0  0  0  0  0  0
    9.2215   -4.4651    0.0000 N   0  0  0  0  0  0  0  0  0  0  0  0
    9.9362   -4.8775    0.0000 C   0  0  0  0  0  0  0  0  0  0  0  0
    9.9362   -5.7025    0.0000 C   0  0  0  0  0  0  0  0  0  0  0  0
   10.6506   -6.1152    0.0000 C   0  0  0  0  0  0  0  0  0  0  0  0
   11.3650   -5.7025    0.0000 C   0  0  0  0  0  0  0  0  0  0  0  0
   11.3650   -4.8775    0.0000 C   0  0  0  0  0  0  0  0  0  0  0  0
    8.5071   -5.7025    0.0000 C   0  0  0  0  0  0  0  0  0  0  0  0
    9.2215   -6.1152    0.0000 Cl  0  0  0  0  0  0  0  0  0  0  0  0
   10.6506   -4.4651    0.0000 C   0  0  0  0  0  0  0  0  0  0  0  0
    7.7927   -3.6400    0.0000 Cl  0  0  0  0  0  0  0  0  0  0  0  0
   10.6507   -3.6403    0.0000 C   0  0  0  0  0  0  0  0  0  0  0  0
   11.3652   -2.4027    0.0000 O   0  0  0  0  0  0  0  0  0  0  0  0
   11.3652   -3.2276    0.0000 C   0  0  0  0  0  0  0  0  0  0  0  0
   12.0796   -6.1150    0.0000 O   0  0  0  0  0  0  0  0  0  0  0  0
    6.3637   -6.1150    0.0000 O   0  0  0  0  0  0  0  0  0  0  0  0
  2 16  1  0  0  0  0
  2  3  2  0  0  0  0
  4  3  1  0  0  0  0
  5  4  2  0  0  0  0
  2  6  1  0  0  0  0
  6  7  1  0  0  0  0
  7  8  1  0  0  0  0
  9  8  2  0  0  0  0
 10  9  1  0  0  0  0
 11 10  2  0  0  0  0
 12 11  1  0  0  0  0
 13  5  1  0  0  0  0
  6 13  2  0  0  0  0
 13 14  1  0  0  0  0
 15  8  1  0  0  0  0
 15 12  2  0  0  0  0
 15 17  1  0  0  0  0
 17 19  1  0  0  0  0
 19 18  2  0  0  0  0
 19  1  1  0  0  0  0
 11 20  1  0  0  0  0
  4 21  1  0  0  0  0
M  END
> <ID>
CHEBI:223401

> <NAME>
4',5-dihydroxydiclofenac

> <DEFINITION>
A monocarboxylic acid that is the 4',5-dihydroxylated metabolite of diclofenac.

> <STAR>
3

> <SYNONYM>
4',5-dihydroxy DCF; (2-(2,6-Dichloro-4-hydroxyanilino)-5-hydroxyphenyl)acetic acid

> <IUPAC_NAME>
{2-[(2,6-dichloro-4-hydroxyphenyl)amino]-5-hydroxyphenyl}acetic acid

> <FORMULA>
C14H11Cl2NO4

> <MASS>
328.14700

> <MONOISOTOPIC_MASS>
327.00651

> <CHARGE>
0

> <SMILES>
OC(=O)Cc1cc(O)ccc1Nc1c(Cl)cc(O)cc1Cl

> <INCHI>
InChI=1S/C14H11Cl2NO4/c15-10-5-9(19)6-11(16)14(10)17-12-2-1-8(18)3-7(12)4-13(20)21/h1-3,5-6,17-19H,4H2,(H,20,21)

> <INCHIKEY>
DRZFITWJHHNHAD-UHFFFAOYSA-N

> <CAS_REGISTRY_NUMBER>
69002-86-4

> <REAXYS_REGISTRY_NUMBER>
4204964

> <CHEMIDPLUS>
69002-86-4

> <PUBMED_CITATION>
10449188; 15265128; 2118185

$$$$
ChEBI
  Marvin  05270817332D          

 18 19  0  0  1  0            999 V2000
   15.4304  -10.0000    0.0000 N   0  0  0  0  0  0  0  0  0  0  0  0
   15.4304   -9.1748    0.0000 C   0  0  2  0  0  0  0  0  0  0  0  0
   16.1419  -10.4275    0.0000 C   0  0  0  0  0  0  0  0  0  0  0  0
   14.6054  -10.0000    0.0000 C   0  0  0  0  0  0  0  0  0  0  0  0
   16.1419   -8.7624    0.0000 S   0  0  0  0  0  0  0  0  0  0  0  0
   16.8648  -10.0073    0.0000 C   0  0  0  0  0  0  0  0  0  0  0  0
   16.1343  -11.2525    0.0000 C   0  0  0  0  0  0  0  0  0  0  0  0
   14.0226  -10.5789    0.0000 O   0  0  0  0  0  0  0  0  0  0  0  0
   16.8648   -9.1748    0.0000 C   0  0  0  0  0  0  0  0  0  0  0  0
   17.5762  -10.4162    0.0000 C   0  0  0  0  0  0  0  0  0  0  0  0
   15.4191  -11.6537    0.0000 O   0  0  0  0  0  0  0  0  0  0  0  0
   16.8459  -11.6651    0.0000 O   0  0  0  0  0  0  0  0  0  0  0  0
   18.2915  -10.0036    0.0000 O   0  0  0  0  0  0  0  0  0  0  0  0
   19.0031  -10.4162    0.0000 C   0  0  0  0  0  0  0  0  0  0  0  0
   19.7146  -10.0036    0.0000 C   0  0  0  0  0  0  0  0  0  0  0  0
   19.0070  -11.2374    0.0000 O   0  0  0  0  0  0  0  0  0  0  0  0
   15.4304   -8.3535    0.0000 H   0  0  0  0  0  0  0  0  0  0  0  0
   14.6054   -9.1748    0.0000 C   0  0  0  0  0  0  0  0  0  0  0  0
  1  2  1  0  0  0  0
  1  3  1  0  0  0  0
  1  4  1  0  0  0  0
  2 18  1  0  0  0  0
  2  5  1  0  0  0  0
  3  6  2  0  0  0  0
  3  7  1  0  0  0  0
  4  8  2  0  0  0  0
  5  9  1  0  0  0  0
  6 10  1  0  0  0  0
  7 11  1  0  0  0  0
  7 12  2  0  0  0  0
 10 13  1  0  0  0  0
 13 14  1  0  0  0  0
 14 15  1  0  0  0  0
 14 16  2  0  0  0  0
  4 18  1  0  0  0  0
  6  9  1  0  0  0  0
  2 17  1  6  0  0  0
M  END
> <ID>
CHEBI:23064

> <NAME>
cephalosporanic acid

> <STAR>
3

> <IUPAC_NAME>
(6R)-3-[(acetyloxy)methyl]-8-oxo-5-thia-1-azabicyclo[4.2.0]oct-2-ene-2-carboxylic acid

> <FORMULA>
C10H11NO5S

> <MASS>
257.26408

> <MONOISOTOPIC_MASS>
257.03579

> <CHARGE>
0

> <SMILES>
[H][C@@]12CC(=O)N1C(C(O)=O)=C(COC(C)=O)CS2

> <INCHI>
InChI=1S/C10H11NO5S/c1-5(12)16-3-6-4-17-8-2-7(13)11(8)9(6)10(14)15/h8H,2-4H2,1H3,(H,14,15)/t8-/m1/s1

> <INCHIKEY>
YGBFLZPYDUKSPT-MRVPVSSYSA-N

$$$$

Marvin  11110916532D          

 15 16  0  0  0  0            999 V2000
    4.1457   -3.9079    0.0000 N   0  0  0  0  0  0  0  0  0  0  0  0
    4.1457   -4.7337    0.0000 N   0  0  0  0  0  0  0  0  0  0  0  0
    4.8588   -3.4950    0.0000 C   0  0  0  0  0  0  0  0  0  0  0  0
    3.4282   -5.1591    0.0000 C   0  0  0  0  0  0  0  0  0  0  0  0
    6.2852   -2.6651    0.0000 C   0  0  0  0  0  0  0  0  0  0  0  0
    6.9983   -2.2521    0.0000 N   0  0  0  0  0  0  0  0  0  0  0  0
    4.8588   -2.6651    0.0000 C   0  0  0  0  0  0  0  0  0  0  0  0
    5.5720   -3.9079    0.0000 C   0  0  0  0  0  0  0  0  0  0  0  0
    6.2852   -3.4950    0.0000 C   0  0  0  0  0  0  0  0  0  0  0  0
    5.5720   -2.2521    0.0000 C   0  0  0  0  0  0  0  0  0  0  0  0
    2.7068   -4.7462    0.0000 C   0  0  0  0  0  0  0  0  0  0  0  0
    3.4282   -5.9849    0.0000 C   0  0  0  0  0  0  0  0  0  0  0  0
    1.9936   -5.1591    0.0000 C   0  0  0  0  0  0  0  0  0  0  0  0
    2.7068   -6.3978    0.0000 C   0  0  0  0  0  0  0  0  0  0  0  0
    1.9936   -5.9849    0.0000 C   0  0  0  0  0  0  0  0  0  0  0  0
  2  1  2  0  0  0  0
  1  3  1  0  0  0  0
  4  2  1  0  0  0  0
  5  9  2  0  0  0  0
  6  5  1  0  0  0  0
  7  3  1  0  0  0  0
  8  3  2  0  0  0  0
  9  8  1  0  0  0  0
 10  7  2  0  0  0  0
 11  4  2  0  0  0  0
 12  4  1  0  0  0  0
 13 11  1  0  0  0  0
 14 12  2  0  0  0  0
 15 14  1  0  0  0  0
 10  5  1  0  0  0  0
 13 15  2  0  0  0  0
M  END
> <ID>
CHEBI:233869

> <NAME>
4-(phenylazo)aniline

> <DEFINITION>
Azobenzene substituted at one of the 4-positions by an amino group. It has a role as a dye and an allergen.

> <STAR>
3

> <SYNONYM>
p-aminoazobenzene; p-AAZB; Aniline yellow; Aniline Yellow; AAB; 4-Phenylazophenylamine; 4-Phenylazo-phenylamine; 4-Aminoazobenzene; 4-Aminoazobenzene; 4-Amino-1,1'-azobenzene; 4-AAB; 4-(phenyldiazenyl)aniline; 4-(Phenylazo)benzenamine

> <IUPAC_NAME>
4-[(E)-phenyldiazenyl]aniline

> <FORMULA>
C12H11N3

> <MASS>
197.23580

> <MONOISOTOPIC_MASS>
197.09530

> <CHARGE>
0

> <SMILES>
Nc1ccc(cc1)\N=N\c1ccccc1

> <INCHI>
InChI=1S/C12H11N3/c13-10-6-8-12(9-7-10)15-14-11-4-2-1-3-5-11/h1-9H,13H2/b15-14+

> <INCHIKEY>
QPQKUYVSJWQSDY-CCEZHUSRSA-N

> <CAS_REGISTRY_NUMBER>
60-09-3

> <REAXYS_REGISTRY_NUMBER>
513850

> <CHEMIDPLUS>
60-09-3

> <KEGG_COMPOUND_ACCESSION>
C19187

> <WIKIPEDIA_ACCESSION>
Aniline_Yellow

> <PUBMED_CITATION>
11084593; 13233869; 13243097; 14906551; 17899332; 18321769; 18844695; 23760354; 32785935; 3607307; 6010711; 7265110; 8365123

$$$$

Marvin  01261109312D          

 25 27  0  0  0  0            999 V2000
    9.9476   -4.0382    0.0000 C   0  0  0  0  0  0  0  0  0  0  0  0
    9.2332   -3.6256    0.0000 C   0  0  0  0  0  0  0  0  0  0  0  0
    8.5187   -4.8631    0.0000 C   0  0  0  0  0  0  0  0  0  0  0  0
    9.2332   -5.2757    0.0000 C   0  0  0  0  0  0  0  0  0  0  0  0
    9.9476   -4.8631    0.0000 C   0  0  0  0  0  0  0  0  0  0  0  0
   11.3767   -4.8631    0.0000 C   0  0  0  0  0  0  0  0  0  0  0  0
   11.3767   -4.0382    0.0000 C   0  0  0  0  0  0  0  0  0  0  0  0
   10.6622   -3.6256    0.0000 N   0  0  0  0  0  0  0  0  0  0  0  0
   10.6622   -5.2757    0.0000 C   0  0  0  0  0  0  0  0  0  0  0  0
   10.6622   -6.1007    0.0000 N   0  0  0  0  0  0  0  0  0  0  0  0
   11.3767   -6.5132    0.0000 C   0  0  0  0  0  0  0  0  0  0  0  0
   12.0911   -6.1007    0.0000 C   0  0  0  0  0  0  0  0  0  0  0  0
   11.3767   -7.3382    0.0000 C   0  0  0  0  0  0  0  0  0  0  0  0
   12.0911   -7.7507    0.0000 C   0  0  0  0  0  0  0  0  0  0  0  0
   12.8056   -6.5132    0.0000 C   0  0  0  0  0  0  0  0  0  0  0  0
   13.5201   -6.1007    0.0000 C   0  0  0  0  0  0  0  0  0  0  0  0
   14.9490   -6.1007    0.0000 C   0  0  0  0  0  0  0  0  0  0  0  0
   15.6635   -6.5132    0.0000 C   0  0  0  0  0  0  0  0  0  0  0  0
   14.2345   -7.3382    0.0000 C   0  0  0  0  0  0  0  0  0  0  0  0
   14.9490   -7.7507    0.0000 C   0  0  0  0  0  0  0  0  0  0  0  0
   12.8056   -7.3382    0.0000 C   0  0  0  0  0  0  0  0  0  0  0  0
   13.5201   -7.7507    0.0000 O   0  0  0  0  0  0  0  0  0  0  0  0
    8.5187   -4.0382    0.0000 C   0  0  0  0  0  0  0  0  0  0  0  0
    7.8042   -3.6256    0.0000 Cl  0  0  0  0  0  0  0  0  0  0  0  0
   14.2345   -6.5132    0.0000 N   0  0  0  0  0  0  0  0  0  0  0  0
  1  2  2  0  0  0  0
  1  5  1  0  0  0  0
  1  8  1  0  0  0  0
  2 23  1  0  0  0  0
 23  3  2  0  0  0  0
  3  4  1  0  0  0  0
  4  5  2  0  0  0  0
  5  9  1  0  0  0  0
  9  6  2  0  0  0  0
  6  7  1  0  0  0  0
  7  8  2  0  0  0  0
  9 10  1  0  0  0  0
 10 11  1  0  0  0  0
 12 11  2  0  0  0  0
 11 13  1  0  0  0  0
 12 15  1  0  0  0  0
 13 14  2  0  0  0  0
 14 21  1  0  0  0  0
 21 15  2  0  0  0  0
 15 16  1  0  0  0  0
 16 25  1  0  0  0  0
 25 17  1  0  0  0  0
 17 18  1  0  0  0  0
 25 19  1  0  0  0  0
 19 20  1  0  0  0  0
 21 22  1  0  0  0  0
 23 24  1  0  0  0  0
M  END
> <ID>
CHEBI:2674

> <NAME>
amodiaquine

> <DEFINITION>
A quinoline having a chloro group at the 7-position and an aryl amino group at the 4-position.

> <STAR>
3

> <SYNONYM>
Amodiaquine

> <IUPAC_NAME>
4-[(7-chloroquinolin-4-yl)amino]-2-[(diethylamino)methyl]phenol

> <INN>
amodiaquinum; amodiaquine; amodiaquina

> <FORMULA>
C20H22ClN3O

> <MASS>
355.86100

> <MONOISOTOPIC_MASS>
355.14514

> <CHARGE>
0

> <SMILES>
CCN(CC)Cc1cc(Nc2ccnc3cc(Cl)ccc23)ccc1O

> <INCHI>
InChI=1S/C20H22ClN3O/c1-3-24(4-2)13-14-11-16(6-8-20(14)25)23-18-9-10-22-19-12-15(21)5-7-17(18)19/h5-12,25H,3-4,13H2,1-2H3,(H,22,23)

> <INCHIKEY>
OVCDSSHSILBFBN-UHFFFAOYSA-N

> <BEILSTEIN_REGISTRY_NUMBER>
300962

> <CAS_REGISTRY_NUMBER>
86-42-0

> <REAXYS_REGISTRY_NUMBER>
300962

> <CHEMIDPLUS>
86-42-0

> <DRUGBANK_ACCESSION>
DB00613

> <KEGG_COMPOUND_ACCESSION>
C07626

> <KEGG_DRUG_ACCESSION>
D02922

> <LINCS_ACCESSION>
LSM-4042

> <PDBECHEM_ACCESSION>
CQA

> <WIKIPEDIA_ACCESSION>
Amodiaquine

> <PUBMED_CITATION>
11044276; 11971651; 17046445; 17222819; 18419816; 18855526; 19024339; 19245687; 26206402; 26597254; 26647924; 26735991; 26851641; 26900802; 26930583; 27031231; 8885219

$$$$

Marvin  02251010042D          

 26 28  0  0  1  0            999 V2000
    0.6673    0.5269    0.0000 C   0  0  2  0  0  0  0  0  0  0  0  0
    0.6673   -0.2981    0.0000 C   0  0  0  0  0  0  0  0  0  0  0  0
    1.4923   -0.2981    0.0000 N   0  0  0  0  0  0  0  0  0  0  0  0
    1.4923    0.5269    0.0000 C   0  0  2  0  0  0  0  0  0  0  0  0
    2.2769   -0.5531    0.0000 C   0  0  2  0  0  0  0  0  0  0  0  0
    2.7619    0.1144    0.0000 C   0  0  0  0  0  0  0  0  0  0  0  0
    2.2769    0.7818    0.0000 S   0  0  0  0  0  0  0  0  0  0  0  0
    3.4806   -0.2906    0.0000 C   0  0  0  0  0  0  0  0  0  0  0  0
    3.4806    0.5194    0.0000 C   0  0  0  0  0  0  0  0  0  0  0  0
    2.5319   -1.3377    0.0000 C   0  0  0  0  0  0  0  0  0  0  0  0
    3.3388   -1.5092    0.0000 O   0  0  0  0  0  0  0  0  0  0  0  0
    1.9798   -1.9508    0.0000 O   0  0  0  0  0  0  0  0  0  0  0  0
   -0.0472    0.9394    0.0000 N   0  0  0  0  0  0  0  0  0  0  0  0
   -0.7616    0.5269    0.0000 C   0  0  0  0  0  0  0  0  0  0  0  0
   -0.7616   -0.2981    0.0000 O   0  0  0  0  0  0  0  0  0  0  0  0
   -1.4761    0.9394    0.0000 C   0  0  1  0  0  0  0  0  0  0  0  0
   -2.1906    0.5269    0.0000 C   0  0  0  0  0  0  0  0  0  0  0  0
   -1.4761    1.7644    0.0000 N   0  0  0  0  0  0  0  0  0  0  0  0
   -2.9050    0.9394    0.0000 C   0  0  0  0  0  0  0  0  0  0  0  0
   -3.6195    0.5269    0.0000 C   0  0  0  0  0  0  0  0  0  0  0  0
   -3.6195   -0.2981    0.0000 C   0  0  0  0  0  0  0  0  0  0  0  0
   -2.9050   -0.7106    0.0000 C   0  0  0  0  0  0  0  0  0  0  0  0
   -2.1906   -0.2981    0.0000 C   0  0  0  0  0  0  0  0  0  0  0  0
   -4.3340   -0.7106    0.0000 O   0  0  0  0  0  0  0  0  0  0  0  0
    0.0840   -0.8815    0.0000 O   0  0  0  0  0  0  0  0  0  0  0  0
    1.4923    1.3519    0.0000 H   0  0  0  0  0  0  0  0  0  0  0  0
  1  2  1  0  0  0  0
  2  3  1  0  0  0  0
  4  3  1  0  0  0  0
  4  1  1  0  0  0  0
  3  5  1  0  0  0  0
  5  6  1  0  0  0  0
  6  7  1  0  0  0  0
  4  7  1  0  0  0  0
  6  8  1  0  0  0  0
  6  9  1  0  0  0  0
  5 10  1  6  0  0  0
 10 11  1  0  0  0  0
 10 12  2  0  0  0  0
  1 13  1  1  0  0  0
 13 14  1  0  0  0  0
 14 15  2  0  0  0  0
 14 16  1  0  0  0  0
 16 17  1  0  0  0  0
 16 18  1  1  0  0  0
 17 19  2  0  0  0  0
 19 20  1  0  0  0  0
 20 21  2  0  0  0  0
 21 22  1  0  0  0  0
 22 23  2  0  0  0  0
 17 23  1  0  0  0  0
 21 24  1  0  0  0  0
  2 25  2  0  0  0  0
  4 26  1  6  0  0  0
M  END
> <ID>
CHEBI:2676

> <NAME>
amoxicillin

> <DEFINITION>
A penicillin in which the substituent at position 6 of the penam ring is a 2-amino-2-(4-hydroxyphenyl)acetamido group.

> <STAR>
3

> <SECONDARY_ID>
CHEBI:133770

> <SYNONYM>
p-hydroxyampicillin; AX; amoxycillin; amoxycilin; Amoxicillin anhydrous; Amoxicillin; alpha-amino-p-hydroxybenzylpenicillin; 6-(p-hydroxy-alpha-aminophenylacetamido)penicillanic acid; (2S,5R,6R)-6-{[(2R)-2-amino-2-(4-hydroxyphenyl)acetyl]amino}-3,3-dimethyl-7-oxo-4-thia-1-azabicyclo[3.2.0]heptane-2-carboxylic acid

> <IUPAC_NAME>
6beta-[(2R)-2-amino-2-(4-hydroxyphenyl)acetamido]-2,2-dimethylpenam-3alpha-carboxylic acid

> <INN>
amoxicillinum; amoxicilline; amoxicillin; amoxicilina

> <BRAND_NAME>
Moxal; Clamoxyl; AMPC; Amopenixin; Amolin

> <FORMULA>
C16H19N3O5S

> <MASS>
365.40400

> <MONOISOTOPIC_MASS>
365.10454

> <CHARGE>
0

> <SMILES>
[H][C@]12SC(C)(C)[C@@H](N1C(=O)[C@H]2NC(=O)[C@H](N)c1ccc(O)cc1)C(O)=O

> <INCHI>
InChI=1S/C16H19N3O5S/c1-16(2)11(15(23)24)19-13(22)10(14(19)25-16)18-12(21)9(17)7-3-5-8(20)6-4-7/h3-6,9-11,14,20H,17H2,1-2H3,(H,18,21)(H,23,24)/t9-,10-,11+,14-/m1/s1

> <INCHIKEY>
LSQZJLSUYDQPKJ-NJBDSQKTSA-N

> <BEILSTEIN_REGISTRY_NUMBER>
4274654

> <CAS_REGISTRY_NUMBER>
26787-78-0

> <REAXYS_REGISTRY_NUMBER>
4274654

> <CHEMIDPLUS>
26787-78-0

> <DRUGBANK_ACCESSION>
DB01060

> <HMDB_ACCESSION>
HMDB0015193

> <KEGG_COMPOUND_ACCESSION>
C06827

> <KEGG_DRUG_ACCESSION>
D07452

> <LINCS_ACCESSION>
LSM-5654

> <WIKIPEDIA_ACCESSION>
Amoxicillin

> <PUBMED_CITATION>
10930630; 11431418; 11906332; 12569987; 12833570; 12850488; 16033609; 2083978; 24595455; 24631718; 24759068; 25998949; 27731424; 28987997; 29017833

$$$$

Marvin  01261111162D          

 25 27  0  0  1  0            999 V2000
    0.7145   -0.4125    0.0000 C   0  0  2  0  0  0  0  0  0  0  0  0
    1.5395   -1.2375    0.0000 N   0  0  0  0  0  0  0  0  0  0  0  0
    1.5395   -0.4125    0.0000 C   0  0  2  0  0  0  0  0  0  0  0  0
    2.3241   -1.4925    0.0000 C   0  0  1  0  0  0  0  0  0  0  0  0
    2.3241   -0.1576    0.0000 S   0  0  0  0  0  0  0  0  0  0  0  0
    2.5790   -2.2771    0.0000 C   0  0  0  0  0  0  0  0  0  0  0  0
    3.3860   -2.4486    0.0000 O   0  0  0  0  0  0  0  0  0  0  0  0
    2.0270   -2.8902    0.0000 O   0  0  0  0  0  0  0  0  0  0  0  0
    1.5633    0.4121    0.0000 H   0  0  0  0  0  0  0  0  0  0  0  0
    0.0000    0.0000    0.0000 N   0  0  0  0  0  0  0  0  0  0  0  0
   -0.7145   -0.4125    0.0000 C   0  0  0  0  0  0  0  0  0  0  0  0
   -0.7145   -1.2375    0.0000 O   0  0  0  0  0  0  0  0  0  0  0  0
   -1.4290    0.0000    0.0000 C   0  0  0  0  0  0  0  0  0  0  0  0
   -2.8579    0.0000    0.0000 C   0  0  0  0  0  0  0  0  0  0  0  0
   -3.5724   -0.4125    0.0000 C   0  0  0  0  0  0  0  0  0  0  0  0
   -4.2868    0.0000    0.0000 C   0  0  0  0  0  0  0  0  0  0  0  0
   -4.2868    0.8250    0.0000 C   0  0  0  0  0  0  0  0  0  0  0  0
   -3.5724    1.2375    0.0000 C   0  0  0  0  0  0  0  0  0  0  0  0
   -2.8579    0.8250    0.0000 C   0  0  0  0  0  0  0  0  0  0  0  0
   -2.1434   -0.4125    0.0000 O   0  0  0  0  0  0  0  0  0  0  0  0
    0.7145   -1.2375    0.0000 C   0  0  0  0  0  0  0  0  0  0  0  0
    0.1311   -1.8209    0.0000 O   0  0  0  0  0  0  0  0  0  0  0  0
    3.5235   -0.4125    0.0000 C   0  0  0  0  0  0  0  0  0  0  0  0
    2.8090   -0.8250    0.0000 C   0  0  0  0  0  0  0  0  0  0  0  0
    3.5235   -1.2375    0.0000 C   0  0  0  0  0  0  0  0  0  0  0  0
  1 21  1  0  0  0  0
  1  3  1  0  0  0  0
  1 10  1  1  0  0  0
 21  2  1  0  0  0  0
  2  3  1  0  0  0  0
  2  4  1  0  0  0  0
  3  5  1  0  0  0  0
  3  9  1  6  0  0  0
  4 24  1  0  0  0  0
  4  6  1  6  0  0  0
 24  5  1  0  0  0  0
  6  7  1  0  0  0  0
  6  8  2  0  0  0  0
 10 11  1  0  0  0  0
 11 12  2  0  0  0  0
 11 13  1  0  0  0  0
 13 20  1  0  0  0  0
 20 14  1  0  0  0  0
 14 15  2  0  0  0  0
 14 19  1  0  0  0  0
 15 16  1  0  0  0  0
 16 17  2  0  0  0  0
 17 18  1  0  0  0  0
 18 19  2  0  0  0  0
 21 22  2  0  0  0  0
 24 23  1  0  0  0  0
 24 25  1  0  0  0  0
M  END
> <ID>
CHEBI:27446

> <NAME>
phenoxymethylpenicillin

> <DEFINITION>
A penicillin compound having a 6β-(phenoxyacetyl)amino side-chain.

> <STAR>
3

> <SECONDARY_ID>
CHEBI:44947; CHEBI:7966; CHEBI:25868

> <SYNONYM>
PV; phenoxymethylenepenicillinic acid; phenoxomethylpenicillin; Penicillin V; penicillin phenoxymethyl; Oracillin; 6-phenoxyacetamidopenicillanic acid; (2S,5R,6R)-3,3-dimethyl-7-oxo-6-[(phenoxyacetyl)amino]-4-thia-1-azabicyclo[3.2.0]heptane-2-carboxylic acid; (2S,5R,6R)-3,3-DIMETHYL-7-OXO-6-(2-PHENOXYACETAMIDO)-4-THIA-1- AZABICYCLO(3.2.0)HEPTANE-2-CARBOXYLIC ACID

> <IUPAC_NAME>
3,3-dimethyl-6beta-[(phenoxyacetyl)amino]penam-2alpha-carboxylic acid (PIN); 2,2-dimethyl-6beta-[(phenoxyacetyl)amino]penam-3alpha-carboxylic acid

> <INN>
phenoxymethylpenicillinum; phenoxymethylpenicilline; phenoxymethylpenicillin; fenoximetilpenicilina

> <BRAND_NAME>
V-Cillin; Fenospen

> <FORMULA>
C16H18N2O5S

> <MASS>
350.39000

> <MONOISOTOPIC_MASS>
350.09364

> <CHARGE>
0

> <SMILES>
[H][C@]12SC(C)(C)[C@@H](N1C(=O)[C@H]2NC(=O)COc1ccccc1)C(O)=O

> <INCHI>
InChI=1S/C16H18N2O5S/c1-16(2)12(15(21)22)18-13(20)11(14(18)24-16)17-10(19)8-23-9-6-4-3-5-7-9/h3-7,11-12,14H,8H2,1-2H3,(H,17,19)(H,21,22)/t11-,12+,14-/m1/s1

> <INCHIKEY>
BPLBGHOLXOTWMN-MBNYWOFBSA-N

> <BEILSTEIN_REGISTRY_NUMBER>
96259

> <CAS_REGISTRY_NUMBER>
87-08-1

> <REAXYS_REGISTRY_NUMBER>
96259

> <CHEMIDPLUS>
87-08-1

> <DRUGBANK_ACCESSION>
DB00417

> <KEGG_COMPOUND_ACCESSION>
C08126

> <KEGG_DRUG_ACCESSION>
D05411

> <PDBECHEM_ACCESSION>
PNV

> <WIKIPEDIA_ACCESSION>
Phenoxymethylpenicillin

> <PUBMED_CITATION>
10930630; 12569987; 13377278; 14687482; 16033609; 19357666; 19496253; 21148688; 22763423; 23732051; 26986755; 27731424; 8566082

$$$$

Mrv0541 02071410172D          

 11 11  0  0  0  0            999 V2000
    0.0488    0.3799    0.0000 S   0  0  0  0  0  0  0  0  0  0  0  0
   -0.6657   -0.0326    0.0000 C   0  0  0  0  0  0  0  0  0  0  0  0
   -0.6657   -0.8576    0.0000 C   0  0  0  0  0  0  0  0  0  0  0  0
   -1.3802    0.3799    0.0000 C   0  0  0  0  0  0  0  0  0  0  0  0
   -1.3802   -1.2701    0.0000 C   0  0  0  0  0  0  0  0  0  0  0  0
   -2.0946   -0.0325    0.0000 C   0  0  0  0  0  0  0  0  0  0  0  0
   -2.0946   -0.8575    0.0000 C   0  0  0  0  0  0  0  0  0  0  0  0
   -2.8091   -1.2700    0.0000 N   0  0  0  0  0  0  0  0  0  0  0  0
    0.7662   -0.0240    0.0000 O   0  0  0  0  0  0  0  0  0  0  0  0
   -0.3676    1.0921    0.0000 O   0  0  0  0  0  0  0  0  0  0  0  0
    0.4574    1.0966    0.0000 O   0  0  0  0  0  0  0  0  0  0  0  0
  1  2  1  0  0  0  0
  2  3  2  0  0  0  0
  2  4  1  0  0  0  0
  3  5  1  0  0  0  0
  4  6  2  0  0  0  0
  5  7  2  0  0  0  0
  7  8  1  0  0  0  0
  6  7  1  0  0  0  0
  1  9  1  0  0  0  0
 10  1  2  0  0  0  0
 11  1  2  0  0  0  0
M  END
> <ID>
CHEBI:27500

> <NAME>
4-aminobenzenesulfonic acid

> <DEFINITION>
An  aminobenzenesulfonic acid that is aniline sulfonated at the para-position.

> <STAR>
3

> <SECONDARY_ID>
CHEBI:1782

> <SYNONYM>
sulphanilic acid; Sulfanilsaeure; Sulfanilic acid; p-aminophenylsulfonic acid; p-Aminobenzenesulfonic acid; aniline-p-sulphonic acid; aniline-p-sulfonic acid; 4-Aminobenzenesulfonic acid

> <IUPAC_NAME>
4-aminobenzenesulfonic acid

> <FORMULA>
C6H7NO3S

> <MASS>
173.19000

> <MONOISOTOPIC_MASS>
173.01466

> <CHARGE>
0

> <SMILES>
Nc1ccc(cc1)S(O)(=O)=O

> <INCHI>
InChI=1S/C6H7NO3S/c7-5-1-3-6(4-2-5)11(8,9)10/h1-4H,7H2,(H,8,9,10)

> <INCHIKEY>
HVBSAKJJOYLTQU-UHFFFAOYSA-N

> <BEILSTEIN_REGISTRY_NUMBER>
908765

> <CAS_REGISTRY_NUMBER>
121-57-3

> <GMELIN_REGISTRY_NUMBER>
101735

> <REAXYS_REGISTRY_NUMBER>
908765

> <CHEMIDPLUS>
121-57-3

> <KEGG_COMPOUND_ACCESSION>
C06335

> <METACYC_ACCESSION>
CPD-10427

> <NIST_CHEMISTRY_WEBBOOK>
121-57-3

> <WIKIPEDIA_ACCESSION>
Sulfanilic_acid

> <PUBMED_CITATION>
22764117; 2434548; 24435205; 25259503; 7200051

$$$$
ChEBI


  3  3  0  0  0  0  0  0  0  0  1 V2000
   13.2696   -4.3575    0.0000 O   0  0  0  0  0  0  0  0  0  0  0  0
   13.9346   -5.5093    0.0000 C   0  0  0  0  0  0  0  0  0  0  0  0
   12.6046   -5.5093    0.0000 C   0  0  0  0  0  0  0  0  0  0  0  0
  2  1  1  0  0  0  0
  3  1  1  0  0  0  0
  2  3  1  0  0  0  0
M  END
> <ID>
CHEBI:27561

> <NAME>
oxirane

> <DEFINITION>
A  saturated organic heteromonocyclic parent that is a three-membered heterocycle of two carbon atoms and one oxygen atom.

> <STAR>
3

> <SECONDARY_ID>
CHEBI:4900; CHEBI:24001

> <SYNONYM>
Oxyfume; oxyde d'ethylene; Oxidoethane; Oxane; Oxacyclopropane; ETO; Ethylene oxide; ethene oxide; epoxyethane; Dimethylene oxide; Dihydrooxirene; Anproline; Anprolene; Amprolene; Aethylenoxid; 1,2-epoxyethane; 1,2-Epoxyaethan

> <IUPAC_NAME>
oxirane

> <FORMULA>
C2H4O

> <MASS>
44.05256

> <MONOISOTOPIC_MASS>
44.02621

> <CHARGE>
0

> <SMILES>
C1CO1

> <INCHI>
InChI=1S/C2H4O/c1-2-3-1/h1-2H2

> <INCHIKEY>
IAYPIBMASNFSPL-UHFFFAOYSA-N

> <BEILSTEIN_REGISTRY_NUMBER>
102378

> <CAS_REGISTRY_NUMBER>
75-21-8

> <GMELIN_REGISTRY_NUMBER>
676

> <REAXYS_REGISTRY_NUMBER>
102378

> <CHEMIDPLUS>
75-21-8

> <HMDB_ACCESSION>
HMDB0031305

> <KEGG_COMPOUND_ACCESSION>
C06548

> <KEGG_DRUG_ACCESSION>
D03474

> <NIST_CHEMISTRY_WEBBOOK>
75-21-8

> <WIKIPEDIA_ACCESSION>
Oxirane

> <PUBMED_CITATION>
11437638; 24313866; 24882394; 25005741; 3932500

$$$$

Marvin  02111014102D          

 24 26  0  0  1  0            999 V2000
    4.2917   -3.6917    0.0000 N   0  0  0  0  0  0  0  0  0  0  0  0
    3.4667   -3.6917    0.0000 C   0  0  0  0  0  0  0  0  0  0  0  0
    3.4667   -2.8667    0.0000 C   0  0  2  0  0  0  0  0  0  0  0  0
    5.0042   -4.1042    0.0000 C   0  0  0  0  0  0  0  0  0  0  0  0
    4.2917   -2.8667    0.0000 C   0  0  1  0  0  0  0  0  0  0  0  0
    2.8917   -2.2917    0.0000 N   0  0  0  0  0  0  0  0  0  0  0  0
    3.1042   -1.5042    0.0000 C   0  0  0  0  0  0  0  0  0  0  0  0
    5.0042   -4.9292    0.0000 C   0  0  0  0  0  0  0  0  0  0  0  0
    5.7250   -3.6917    0.0000 C   0  0  0  0  0  0  0  0  0  0  0  0
    2.5167   -0.9167    0.0000 C   0  0  2  0  0  0  0  0  0  0  0  0
    5.0042   -2.4542    0.0000 C   0  0  0  0  0  0  0  0  0  0  0  0
    2.8917   -4.2750    0.0000 O   0  0  0  0  0  0  0  0  0  0  0  0
    2.7292   -0.1292    0.0000 N   0  0  0  0  0  0  0  0  0  0  0  0
    3.9042   -1.2917    0.0000 O   0  0  0  0  0  0  0  0  0  0  0  0
    5.7250   -2.8667    0.0000 C   0  0  0  0  0  0  0  0  0  0  0  0
    5.7250   -5.3417    0.0000 O   0  5  0  0  0  0  0  0  0  0  0  0
    4.2917   -5.3417    0.0000 O   0  0  0  0  0  0  0  0  0  0  0  0
    1.7167   -1.1292    0.0000 C   0  0  0  0  0  0  0  0  0  0  0  0
    6.4417   -4.1042    0.0000 Cl  0  0  0  0  0  0  0  0  0  0  0  0
    1.5042   -1.9125    0.0000 C   0  0  0  0  0  0  0  0  0  0  0  0
    1.1375   -0.5417    0.0000 C   0  0  0  0  0  0  0  0  0  0  0  0
    0.3500   -0.7500    0.0000 C   0  0  0  0  0  0  0  0  0  0  0  0
    0.7042   -2.1250    0.0000 C   0  0  0  0  0  0  0  0  0  0  0  0
    0.1292   -1.5417    0.0000 C   0  0  0  0  0  0  0  0  0  0  0  0
  2  1  1  0  0  0  0
  3  5  1  0  0  0  0
  4  1  1  0  0  0  0
  5  1  1  0  0  0  0
  3  6  1  1  0  0  0
  7  6  1  0  0  0  0
  8  4  1  0  0  0  0
  9  4  2  0  0  0  0
 10  7  1  0  0  0  0
  5 11  1  1  0  0  0
 12  2  2  0  0  0  0
 10 13  1  1  0  0  0
 14  7  2  0  0  0  0
 15 11  1  0  0  0  0
 16  8  1  0  0  0  0
 17  8  2  0  0  0  0
 18 10  1  0  0  0  0
 19  9  1  0  0  0  0
 20 18  1  0  0  0  0
 21 18  2  0  0  0  0
 22 21  1  0  0  0  0
 23 20  2  0  0  0  0
 24 22  2  0  0  0  0
  3  2  1  0  0  0  0
 15  9  1  0  0  0  0
 23 24  1  0  0  0  0
M  CHG  1  16  -1
M  END
> <ID>
CHEBI:281056

> <NAME>
loracarbef anion

> <DEFINITION>
The conjugate base of loracarbef.

> <STAR>
3

> <SYNONYM>
loracarbef

> <IUPAC_NAME>
7beta-[(2R)-2-amino-2-phenylacetyl]nitrilo-3-chloro-3,4-didehydrocepham-4-carboxylate; (6R,7S)-7-{[(2R)-2-amino-2-phenylacetyl]amino}-3-chloro-8-oxo-1-azabicyclo[4.2.0]oct-2-ene-2-carboxylate

> <FORMULA>
C16H15ClN3O4

> <MASS>
348.76100

> <MONOISOTOPIC_MASS>
348.07566

> <CHARGE>
-1

> <SMILES>
N[C@@H](C(=O)N[C@H]1[C@H]2CCC(Cl)=C(N2C1=O)C([O-])=O)c1ccccc1

> <INCHI>
InChI=1S/C16H16ClN3O4/c17-9-6-7-10-12(15(22)20(10)13(9)16(23)24)19-14(21)11(18)8-4-2-1-3-5-8/h1-5,10-12H,6-7,18H2,(H,19,21)(H,23,24)/p-1/t10-,11-,12+/m1/s1

> <INCHIKEY>
JAPHQRWPEGVNBT-UTUOFQBUSA-M

$$$$

Marvin  01121014482D          

 18 19  0  0  1  0            999 V2000
   13.8159   -9.7866    0.0000 C   0  0  0  0  0  0  0  0  0  0  0  0
   14.4609   -8.4472    0.0000 C   0  0  0  0  0  0  0  0  0  0  0  0
   15.7304   -8.8597    0.0000 C   0  0  2  0  0  0  0  0  0  0  0  0
   15.2455   -8.1923    0.0000 C   0  0  0  0  0  0  0  0  0  0  0  0
   14.4609   -9.2722    0.0000 C   0  0  0  0  0  0  0  0  0  0  0  0
   13.0115   -8.1164    0.0000 C   0  0  2  0  0  0  0  0  0  0  0  0
   12.6536   -8.8597    0.0000 C   0  0  0  0  0  0  0  0  0  0  0  0
   15.2455   -9.5272    0.0000 C   0  0  1  0  0  0  0  0  0  0  0  0
   13.8159   -7.9329    0.0000 C   0  0  0  0  0  0  0  0  0  0  0  0
   13.0115   -9.6030    0.0000 C   0  0  0  0  0  0  0  0  0  0  0  0
   15.7305  -10.1945    0.0000 O   0  0  0  0  0  0  0  0  0  0  0  0
   16.5151   -9.9395    0.0000 C   0  0  0  0  0  0  0  0  0  0  0  0
   16.5151   -9.1145    0.0000 C   0  0  0  0  0  0  0  0  0  0  0  0
   17.2296  -10.3520    0.0000 O   0  0  0  0  0  0  0  0  0  0  0  0
   17.2295   -8.7020    0.0000 C   0  0  0  0  0  0  0  0  0  0  0  0
   14.0295   -7.1360    0.0000 C   0  0  0  0  0  0  0  0  0  0  0  0
   12.4282   -7.5330    0.0000 O   0  0  0  0  0  0  0  0  0  0  0  0
   13.8159  -10.6116    0.0000 C   0  0  0  0  0  0  0  0  0  0  0  0
  9  6  1  0  0  0  0
  9  2  1  0  0  0  0
  1  5  2  0  0  0  0
  4  2  1  0  0  0  0
  3  4  1  0  0  0  0
  5  8  1  0  0  0  0
  6  7  1  0  0  0  0
 10  7  1  0  0  0  0
 10  1  1  0  0  0  0
  3 13  1  1  0  0  0
  3  8  1  0  0  0  0
  8 11  1  6  0  0  0
 11 12  1  0  0  0  0
 12 13  1  0  0  0  0
 12 14  2  0  0  0  0
 13 15  2  0  0  0  0
  9 16  2  0  0  0  0
  6 17  1  1  0  0  0
  1 18  1  0  0  0  0
M  END
> <ID>
CHEBI:2853

> <NAME>
artemorin

> <DEFINITION>
A germacranolide isolated from Laurus nobilis L..

> <STAR>
3

> <SYNONYM>
Artemorin

> <IUPAC_NAME>
(7R,10E)-7-hydroxy-10-methyl-3,6-bis(methylidene)-3a,4,5,6,7,8,9,11a-octahydrocyclodeca[b]furan-2(3H)-one

> <FORMULA>
C15H20O3

> <MASS>
248.31750

> <MONOISOTOPIC_MASS>
248.14124

> <CHARGE>
0

> <SMILES>
C\C1=C/[C@H]2OC(=O)C(=C)[C@@H]2CCC(=C)[C@H](O)CC1

> <INCHI>
InChI=1S/C15H20O3/c1-9-4-7-13(16)10(2)5-6-12-11(3)15(17)18-14(12)8-9/h8,12-14,16H,2-7H2,1H3/b9-8+/t12-,13+,14+/m0/s1

> <INCHIKEY>
JNHKVMWTQCZYHK-CVZWCJCVSA-N

> <BEILSTEIN_REGISTRY_NUMBER>
1623173

> <CAS_REGISTRY_NUMBER>
64845-92-7

> <REAXYS_REGISTRY_NUMBER>
1623173

> <KEGG_COMPOUND_ACCESSION>
C09345

> <KNAPSACK_ACCESSION>
C00003222

> <PUBMED_CITATION>
6476889

$$$$

Marvin  01071112192D          

 25 28  0  0  0  0            999 V2000
   -2.0073   -2.1411    0.0000 C   0  0  0  0  0  0  0  0  0  0  0  0
   -2.0073   -0.4911    0.0000 C   0  0  0  0  0  0  0  0  0  0  0  0
   -2.7218   -1.7286    0.0000 C   0  0  0  0  0  0  0  0  0  0  0  0
   -1.2929   -0.9036    0.0000 C   0  0  0  0  0  0  0  0  0  0  0  0
   -1.2929   -1.7286    0.0000 C   0  0  0  0  0  0  0  0  0  0  0  0
    0.1361   -1.7286    0.0000 C   0  0  0  0  0  0  0  0  0  0  0  0
   -0.5784   -2.1411    0.0000 N   0  0  0  0  0  0  0  0  0  0  0  0
   -0.5784   -0.4911    0.0000 C   0  0  0  0  0  0  0  0  0  0  0  0
    0.1361   -0.9036    0.0000 C   0  0  0  0  0  0  0  0  0  0  0  0
    0.1361    1.5714    0.0000 C   0  0  0  0  0  0  0  0  0  0  0  0
    1.5650    0.7464    0.0000 C   0  0  0  0  0  0  0  0  0  0  0  0
    1.5650    1.5714    0.0000 C   0  0  2  0  0  0  0  0  0  0  0  0
    1.2631    1.2695    0.0000 C   0  0  0  0  0  0  0  0  0  0  0  0
    2.2795    1.9839    0.0000 C   0  0  0  0  0  0  0  0  0  0  0  0
    0.8506    1.9839    0.0000 C   0  0  1  0  0  0  0  0  0  0  0  0
    0.8506    0.3339    0.0000 N   0  0  2  0  0  0  0  0  0  0  0  0
    1.2632   -0.3805    0.0000 C   0  0  0  0  0  0  0  0  0  0  0  0
    3.0140    1.6115    0.0000 C   0  0  0  0  0  0  0  0  0  0  0  0
   -2.7218   -0.9036    0.0000 C   0  0  0  0  0  0  0  0  0  0  0  0
   -3.4363   -0.4911    0.0000 O   0  0  0  0  0  0  0  0  0  0  0  0
   -4.1507   -0.9036    0.0000 C   0  0  0  0  0  0  0  0  0  0  0  0
   -0.5784    0.3339    0.0000 C   0  0  2  0  0  0  0  0  0  0  0  0
   -1.2929    0.7464    0.0000 O   0  0  0  0  0  0  0  0  0  0  0  0
    0.1361    0.7464    0.0000 C   0  0  1  0  0  0  0  0  0  0  0  0
    0.1361   -0.0786    0.0000 H   0  0  0  0  0  0  0  0  0  0  0  0
  1  5  2  0  0  0  0
  1  3  1  0  0  0  0
  4  2  2  0  0  0  0
  2 19  1  0  0  0  0
 19  3  2  0  0  0  0
  8  4  1  0  0  0  0
  5  4  1  0  0  0  0
  5  7  1  0  0  0  0
  7  6  2  0  0  0  0
  6  9  1  0  0  0  0
 22  8  1  0  0  0  0
  8  9  2  0  0  0  0
 24 22  1  0  0  0  0
 10 24  1  0  0  0  0
 24 16  1  0  0  0  0
 15 10  1  0  0  0  0
 15 12  1  0  0  0  0
 11 12  1  0  0  0  0
 12 14  1  1  0  0  0
 14 18  2  0  0  0  0
 16 17  1  6  0  0  0
 15 13  1  6  0  0  0
 13 17  1  0  0  0  0
 16 11  1  0  0  0  0
 19 20  1  0  0  0  0
 20 21  1  0  0  0  0
 22 23  1  6  0  0  0
 24 25  1  6  0  0  0
M  END
> <ID>
CHEBI:28593

> <NAME>
quinidine

> <DEFINITION>
A cinchona alkaloid consisting of cinchonine with the hydrogen at the 6-position of the quinoline ring substituted by methoxy.

> <STAR>
3

> <SECONDARY_ID>
CHEBI:127150; CHEBI:355477; CHEBI:8719; CHEBI:597286; CHEBI:604323; CHEBI:595841; CHEBI:26494; CHEBI:529982

> <SYNONYM>
Quinidine; quinidine; quinidina; pitayine; conquinine; Conchinin; CIN-QUIN; chinidinum; Chinidin; beta-quinine; alpha-(6-methoxy-4-quinolyl)-5-vinyl-2-quinuclidinemethanol; 6-methoxy-alpha-(5-vinyl-2-quinuclidinyl)-4-quinolinemethanol; (S)-(6-methoxyquinolin-4-yl)((2R,5R)-5-vinylquinuclidin-2-yl)methanol; (S)-(6-Methoxy-quinolin-4-yl)-((2R,5R)-5-vinyl-1-aza-bicyclo[2.2.2]oct-2-yl)-methanol; (R)-(6-methoxyquinolin-4-yl)((3S,4R,7S)-3-vinylquinuclidin-7-yl)methanol; (8R,9S)-quinidine; (+)-Quinidine; (+)-quinidine

> <IUPAC_NAME>
(9S)-6'-methoxycinchonan-9-ol

> <BRAND_NAME>
Kinidin

> <FORMULA>
C20H24N2O2

> <MASS>
324.41680

> <MONOISOTOPIC_MASS>
324.18378

> <CHARGE>
0

> <SMILES>
[H][C@@]1(C[C@@H]2CC[N@]1C[C@@H]2C=C)[C@@H](O)c1ccnc2ccc(OC)cc12

> <INCHI>
InChI=1S/C20H24N2O2/c1-3-13-12-22-9-7-14(13)10-19(22)20(23)16-6-8-21-18-5-4-15(24-2)11-17(16)18/h3-6,8,11,13-14,19-20,23H,1,7,9-10,12H2,2H3/t13-,14-,19+,20-/m0/s1

> <INCHIKEY>
LOUPRKONTZGTKE-LHHVKLHASA-N

> <BEILSTEIN_REGISTRY_NUMBER>
91866

> <CAS_REGISTRY_NUMBER>
56-54-2

> <REAXYS_REGISTRY_NUMBER>
91866

> <CHEMIDPLUS>
56-54-2

> <DRUGBANK_ACCESSION>
DB00908

> <KEGG_COMPOUND_ACCESSION>
C06527

> <KEGG_DRUG_ACCESSION>
D08458

> <LINCS_ACCESSION>
LSM-3325

> <NIST_CHEMISTRY_WEBBOOK>
56-54-2

> <PUBMED_CITATION>
14973303; 15089813; 15270556; 15328252; 17228875; 17249648; 18788725; 23861085; 24130427; 445303; 8337232; 9864343; 12699389; 14971904; 15225721; 16570918; 17870541; 12477351; 17132069; 18395298; 18324762

$$$$

Marvin  11010718082D          

 10 10  0  0  0  0            999 V2000
    0.0000    0.0000    0.0000 O   0  0  0  0  0  0  0  0  0  0  0  0
   -0.6674   -0.4849    0.0000 C   0  0  2  0  0  0  0  0  0  0  0  0
    0.6674   -0.4849    0.0000 C   0  0  1  0  0  0  0  0  0  0  0  0
    1.4521   -0.2300    0.0000 O   0  0  0  0  0  0  0  0  0  0  0  0
    0.4125   -1.2695    0.0000 C   0  0  2  0  0  0  0  0  0  0  0  0
    0.8974   -1.9370    0.0000 O   0  0  0  0  0  0  0  0  0  0  0  0
   -0.4125   -1.2695    0.0000 C   0  0  1  0  0  0  0  0  0  0  0  0
   -0.8974   -1.9370    0.0000 O   0  0  0  0  0  0  0  0  0  0  0  0
   -1.4521   -0.2300    0.0000 C   0  0  0  0  0  0  0  0  0  0  0  0
   -2.0652   -0.7820    0.0000 O   0  0  0  0  0  0  0  0  0  0  0  0
  1  2  1  0  0  0  0
  1  3  1  0  0  0  0
  2  7  1  0  0  0  0
  2  9  1  6  0  0  0
  5  3  1  0  0  0  0
  3  4  1  1  0  0  0
  7  5  1  0  0  0  0
  5  6  1  6  0  0  0
  7  8  1  1  0  0  0
  9 10  1  0  0  0  0
M  END
> <ID>
CHEBI:28772

> <NAME>
alpha-L-arabinofuranose

> <STAR>
3

> <SECONDARY_ID>
CHEBI:40628; CHEBI:10288; CHEBI:22419

> <SYNONYM>
alpha-L-Arabinose; alpha-L-arabinofuranose; ALPHA-L-ARABINOFURANOSE

> <IUPAC_NAME>
alpha-L-arabinofuranose

> <FORMULA>
C5H10O5

> <MASS>
150.12990

> <MONOISOTOPIC_MASS>
150.05282

> <CHARGE>
0

> <SMILES>
OC[C@@H]1O[C@@H](O)[C@H](O)[C@H]1O

> <INCHI>
InChI=1S/C5H10O5/c6-1-2-3(7)4(8)5(9)10-2/h2-9H,1H2/t2-,3-,4+,5+/m0/s1

> <INCHIKEY>
HMFHBZSHGGEWLO-QMKXCQHVSA-N

> <BEILSTEIN_REGISTRY_NUMBER>
1904883

> <DRUGBANK_ACCESSION>
DB03142

> <PDBECHEM_ACCESSION>
AHR

$$$$

Marvin  02091117112D          

 19 19  0  0  1  0            999 V2000
   12.3674  -12.5312    0.0000 C   0  0  0  0  0  0  0  0  0  0  0  0
   11.6542  -12.9393    0.0000 N   0  0  0  0  0  0  0  0  0  0  0  0
   13.0805  -12.9393    0.0000 C   0  0  0  0  0  0  0  0  0  0  0  0
   12.3674  -11.7050    0.0000 C   0  0  0  0  0  0  0  0  0  0  0  0
   11.6542  -13.7656    0.0000 C   0  0  0  0  0  0  0  0  0  0  0  0
   10.9376  -12.5312    0.0000 C   0  0  0  0  0  0  0  0  0  0  0  0
   13.7972  -12.5312    0.0000 C   0  0  0  0  0  0  0  0  0  0  0  0
   13.0805  -11.2901    0.0000 C   0  0  0  0  0  0  0  0  0  0  0  0
   13.7937  -11.7118    0.0000 C   0  0  0  0  0  0  0  0  0  0  0  0
   14.5069  -11.2970    0.0000 C   0  0  0  0  0  0  0  0  0  0  0  0
   15.2200  -11.7118    0.0000 C   0  0  1  0  0  0  0  0  0  0  0  0
   15.9366  -11.2970    0.0000 C   0  0  0  0  0  0  0  0  0  0  0  0
   15.2200  -12.5347    0.0000 N   0  0  0  0  0  0  0  0  0  0  0  0
   16.6463  -11.7118    0.0000 O   0  0  0  0  0  0  0  0  0  0  0  0
   15.9366  -10.4706    0.0000 O   0  0  0  0  0  0  0  0  0  0  0  0
   10.9357  -11.7216    0.0000 C   0  0  0  0  0  0  0  0  0  0  0  0
   10.2137  -11.3068    0.0000 Cl  0  0  0  0  0  0  0  0  0  0  0  0
   12.3791  -14.1839    0.0000 C   0  0  0  0  0  0  0  0  0  0  0  0
   12.3793  -15.0110    0.0000 Cl  0  0  0  0  0  0  0  0  0  0  0  0
  1  2  1  0  0  0  0
  1  3  2  0  0  0  0
  1  4  1  0  0  0  0
  2  5  1  0  0  0  0
  2  6  1  0  0  0  0
  3  7  1  0  0  0  0
  4  8  2  0  0  0  0
  7  9  2  0  0  0  0
  9 10  1  0  0  0  0
 10 11  1  0  0  0  0
 11 12  1  0  0  0  0
 11 13  1  1  0  0  0
 12 14  1  0  0  0  0
 12 15  2  0  0  0  0
  8  9  1  0  0  0  0
  6 16  1  0  0  0  0
 16 17  1  0  0  0  0
  5 18  1  0  0  0  0
 18 19  1  0  0  0  0
M  END
> <ID>
CHEBI:28876

> <NAME>
melphalan

> <DEFINITION>
A phenylalanine derivative comprising L-phenylalanine having [bis(2-chloroethyl)amino group at the 4-position on the phenyl ring.

> <STAR>
3

> <SECONDARY_ID>
CHEBI:25815; CHEBI:6742

> <SYNONYM>
Phenylalanine nitrogen mustard; Phenylalanine mustard; p-N-Bis(2-chloroethyl)amino-L-phenylalanine; p-N,N-bis(2-chloroethyl)amino-L-phenylalanine; p-L-Sarcolysin; p-Di-(2-chloroethyl)amino-L-phenylalanine; p-Bis(beta-chloroethyl)aminophenylalanine; L-Sarcolysine; L-Phenylalanine mustard; L-PAM; L-3-(p-(Bis(2-chloroethyl)amino)phenyl)alanine; 4-(Bis(2-chloroethyl)amino)-L-phenylalanine; 3-p-(Di(2-chloroethyl)amino)-phenyl-L-alanine; 3-(p-(Bis(2-chloroethyl)amino)phenyl)-L-alanine

> <IUPAC_NAME>
4-[bis(2-chloroethyl)amino]-L-phenylalanine

> <INN>
melphalanum; melphalan; melfalano

> <FORMULA>
C13H18Cl2N2O2

> <MASS>
305.20000

> <MONOISOTOPIC_MASS>
304.07453

> <CHARGE>
0

> <SMILES>
N[C@@H](Cc1ccc(cc1)N(CCCl)CCCl)C(O)=O

> <INCHI>
InChI=1S/C13H18Cl2N2O2/c14-5-7-17(8-6-15)11-3-1-10(2-4-11)9-12(16)13(18)19/h1-4,12H,5-9,16H2,(H,18,19)/t12-/m0/s1

> <INCHIKEY>
SGDBTWWWUNNDEQ-LBPRGKRZSA-N

> <CAS_REGISTRY_NUMBER>
148-82-3

> <REAXYS_REGISTRY_NUMBER>
2816456

> <CHEMIDPLUS>
148-82-3

> <DRUGBANK_ACCESSION>
DB01042

> <KEGG_DRUG_ACCESSION>
D00369

> <WIKIPEDIA_ACCESSION>
Melphalan

> <PUBMED_CITATION>
10820424; 10937717; 11680815; 11914777; 18481314; 445303; 7494795; 7605343; 8552138; 8951232; 9218926; 9250538

$$$$

Marvin  10310723422D          

  5  4  0  0  1  0            999 V2000
    0.3572   -0.2063    0.0000 C   0  0  1  0  0  0  0  0  0  0  0  0
    1.0717    0.2062    0.0000 O   0  0  0  0  0  0  0  0  0  0  0  0
   -0.3572    0.2063    0.0000 C   0  0  0  0  0  0  0  0  0  0  0  0
   -1.0717   -0.2062    0.0000 O   0  0  0  0  0  0  0  0  0  0  0  0
    0.3572   -1.0313    0.0000 C   0  0  0  0  0  0  0  0  0  0  0  0
  1  5  1  6  0  0  0
  2  1  1  0  0  0  0
  1  3  1  0  0  0  0
  4  3  1  0  0  0  0
M  END
> <ID>
CHEBI:28972

> <NAME>
(R)-propane-1,2-diol

> <STAR>
3

> <SECONDARY_ID>
CHEBI:44863; CHEBI:352; CHEBI:18705

> <SYNONYM>
R-1,2-PROPANEDIOL; (R)-Propylene glycol; (R)-propane-1,2-diol; (R)-Propane-1,2-diol; (R)-propane-1,2-diol; (R)-1,2-Propanediol

> <IUPAC_NAME>
(2R)-propane-1,2-diol

> <FORMULA>
C3H8O2

> <MASS>
76.09442

> <MONOISOTOPIC_MASS>
76.05243

> <CHARGE>
0

> <SMILES>
C[C@@H](O)CO

> <INCHI>
InChI=1S/C3H8O2/c1-3(5)2-4/h3-5H,2H2,1H3/t3-/m1/s1

> <INCHIKEY>
DNIAPMSPPWPWGF-GSVOUGTGSA-N

> <CAS_REGISTRY_NUMBER>
4254-14-2

> <DRUGBANK_ACCESSION>
DB02159

> <KEGG_COMPOUND_ACCESSION>
C02912

> <PDBECHEM_ACCESSION>
PGR

$$$$

Marvin  11211112032D          

 34 37  0  0  0  0            999 V2000
    0.0000    0.8250    0.0000 C   0  0  0  0  0  0  0  0  0  0  0  0
    0.7145    0.4125    0.0000 C   0  0  0  0  0  0  0  0  0  0  0  0
    0.7145   -0.4125    0.0000 C   0  0  0  0  0  0  0  0  0  0  0  0
    0.0000   -0.8250    0.0000 C   0  0  0  0  0  0  0  0  0  0  0  0
   -0.7145   -0.4125    0.0000 C   0  0  0  0  0  0  0  0  0  0  0  0
   -0.7145    0.4125    0.0000 C   0  0  0  0  0  0  0  0  0  0  0  0
    2.1434   -2.0625    0.0000 C   0  0  2  0  0  0  0  0  0  0  0  0
    2.1434   -2.8875    0.0000 C   0  0  0  0  0  0  0  0  0  0  0  0
    2.9684   -2.8875    0.0000 N   0  0  0  0  0  0  0  0  0  0  0  0
    2.9684   -2.0625    0.0000 C   0  0  2  0  0  0  0  0  0  0  0  0
    3.7530   -3.1424    0.0000 C   0  0  2  0  0  0  0  0  0  0  0  0
    4.2380   -2.4750    0.0000 C   0  0  0  0  0  0  0  0  0  0  0  0
    3.7530   -1.8076    0.0000 S   0  0  0  0  0  0  0  0  0  0  0  0
    4.9567   -2.8800    0.0000 C   0  0  0  0  0  0  0  0  0  0  0  0
    4.9567   -2.0700    0.0000 C   0  0  0  0  0  0  0  0  0  0  0  0
    4.0080   -3.9271    0.0000 C   0  0  0  0  0  0  0  0  0  0  0  0
    4.8149   -4.0986    0.0000 O   0  0  0  0  0  0  0  0  0  0  0  0
    3.4559   -4.5402    0.0000 O   0  0  0  0  0  0  0  0  0  0  0  0
    1.4289   -1.6500    0.0000 N   0  0  0  0  0  0  0  0  0  0  0  0
    0.7145   -2.0625    0.0000 C   0  0  0  0  0  0  0  0  0  0  0  0
    0.7145   -2.8875    0.0000 O   0  0  0  0  0  0  0  0  0  0  0  0
    0.0000   -1.6500    0.0000 C   0  0  2  0  0  0  0  0  0  0  0  0
   -0.7145   -2.0625    0.0000 N   0  0  0  0  0  0  0  0  0  0  0  0
   -1.4289   -1.6500    0.0000 C   0  0  0  0  0  0  0  0  0  0  0  0
   -1.4289   -0.8250    0.0000 O   0  0  0  0  0  0  0  0  0  0  0  0
    1.5600   -3.4709    0.0000 O   0  0  0  0  0  0  0  0  0  0  0  0
    2.9684   -1.2375    0.0000 H   0  0  0  0  0  0  0  0  0  0  0  0
    0.7145   -1.2375    0.0000 H   0  0  0  0  0  0  0  0  0  0  0  0
   -3.4130   -2.4749    0.0000 N   0  0  0  0  0  0  0  0  0  0  0  0
   -2.9280   -1.8075    0.0000 C   0  0  0  0  0  0  0  0  0  0  0  0
   -2.1434   -2.0625    0.0000 N   0  0  0  0  0  0  0  0  0  0  0  0
   -2.1434   -2.8875    0.0000 C   0  0  0  0  0  0  0  0  0  0  0  0
   -2.9281   -3.1424    0.0000 C   0  0  0  0  0  0  0  0  0  0  0  0
   -3.1829   -1.0229    0.0000 O   0  0  0  0  0  0  0  0  0  0  0  0
  1  2  2  0  0  0  0
 22  4  1  0  0  0  0
  4  5  1  0  0  0  0
  6  1  1  0  0  0  0
  5  6  2  0  0  0  0
  4  3  2  0  0  0  0
  2  3  1  0  0  0  0
  7  8  1  0  0  0  0
  8  9  1  0  0  0  0
 10  9  1  0  0  0  0
 10  7  1  0  0  0  0
  9 11  1  0  0  0  0
 11 12  1  0  0  0  0
 12 13  1  0  0  0  0
 10 13  1  0  0  0  0
 12 14  1  0  0  0  0
 12 15  1  0  0  0  0
 11 16  1  6  0  0  0
 16 17  1  0  0  0  0
 16 18  2  0  0  0  0
  7 19  1  1  0  0  0
 19 20  1  0  0  0  0
 20 21  2  0  0  0  0
 22 20  1  0  0  0  0
 23 24  1  0  0  0  0
 24 31  1  0  0  0  0
 22 23  1  0  0  0  0
 24 25  2  0  0  0  0
  8 26  2  0  0  0  0
 10 27  1  6  0  0  0
 22 28  1  1  0  0  0
 29 30  1  0  0  0  0
 30 31  1  0  0  0  0
 31 32  1  0  0  0  0
 32 33  1  0  0  0  0
 29 33  1  0  0  0  0
 30 34  2  0  0  0  0
M  END
> <ID>
CHEBI:2956

> <NAME>
azlocillin

> <DEFINITION>
A semisynthetic penicillin having a 6β-{(2R)-2-[(2-oxoimidazolidine-1-carbonyl)amino]-2-phenylacetyl}amino side-group. It is an antibiotic used in treating infections caused by Pseudomonas aeruginosa, Escherichia coli and Haemophilus influenzae.

> <STAR>
3

> <SECONDARY_ID>
CHEBI:63225

> <SYNONYM>
(2S,5R,6R)-3,3-dimethyl-7-oxo-6-{[(2R)-2-{[(2-oxoimidazolidin-1-yl)carbonyl]amino}-2-phenylacetyl]amino}-4-thia-1-azabicyclo[3.2.0]heptane-2-carboxylic acid

> <IUPAC_NAME>
2,2-dimethyl-6beta-[(2R)-2-{[(2-oxoimidazolidin-1-yl)carbonyl]amino}-2-phenylacetamido]penam-3alpha-carboxylic acid

> <INN>
azlocillinum; azlocilline; azlocillin; azlocilina

> <FORMULA>
C20H23N5O6S

> <MASS>
461.49200

> <MONOISOTOPIC_MASS>
461.13690

> <CHARGE>
0

> <SMILES>
[H][C@]12SC(C)(C)[C@@H](N1C(=O)[C@H]2NC(=O)[C@]([H])(NC(=O)N1CCNC1=O)c1ccccc1)C(O)=O

> <INCHI>
InChI=1S/C20H23N5O6S/c1-20(2)13(17(28)29)25-15(27)12(16(25)32-20)22-14(26)11(10-6-4-3-5-7-10)23-19(31)24-9-8-21-18(24)30/h3-7,11-13,16H,8-9H2,1-2H3,(H,21,30)(H,22,26)(H,23,31)(H,28,29)/t11-,12-,13+,16-/m1/s1

> <INCHIKEY>
JTWOMNBEOCYFNV-NFFDBFGFSA-N

> <BEILSTEIN_REGISTRY_NUMBER>
5785146

> <CAS_REGISTRY_NUMBER>
37091-66-0

> <REAXYS_REGISTRY_NUMBER>
5785146

> <CHEMIDPLUS>
37091-66-0

> <DRUGBANK_ACCESSION>
DB01061

> <KEGG_COMPOUND_ACCESSION>
C06839

> <KEGG_DRUG_ACCESSION>
D02339

> <LINCS_ACCESSION>
LSM-15179

> <WIKIPEDIA_ACCESSION>
Azlocillin

> <PUBMED_CITATION>
11036013; 11397088; 19292999; 20363776; 2068466; 21219695; 21360610; 21883661; 29017833; 6212725; 6231603; 6289737; 6810286

$$$$

11280715222D 1   1.00000     0.00000     0

 13 13  0     0  0            999 V2000
    5.5542   -0.4000    0.0000 C   0  0  0  0  0  0           0  0  0
    4.8417   -0.8167    0.0000 C   0  0  0  0  0  0           0  0  0
    4.1292   -0.4042    0.0000 C   0  0  0  0  0  0           0  0  0
    3.4167   -0.8167    0.0000 C   0  0  0  0  0  0           0  0  0
    3.4167   -1.6417    0.0000 C   0  0  0  0  0  0           0  0  0
    5.5542    0.4250    0.0000 O   0  0  0  0  0  0           0  0  0
    4.8417   -1.6417    0.0000 C   0  0  0  0  0  0           0  0  0
    4.1292   -2.0542    0.0000 C   0  0  0  0  0  0           0  0  0
    6.2750   -0.8042    0.0000 O   0  0  0  0  0  0           0  0  0
    2.7042   -0.4042    0.0000 O   0  0  0  0  0  0           0  0  0
    2.7000   -2.0542    0.0000 O   0  0  0  0  0  0           0  0  0
    2.7042    0.4208    0.0000 C   0  0  0  0  0  0           0  0  0
    1.9875   -1.6417    0.0000 C   0  0  0  0  0  0           0  0  0
  2  1  1  0     0  0
  3  2  2  0     0  0
  4  3  1  0     0  0
  5  8  1  0     0  0
  6  1  2  0     0  0
  7  2  1  0     0  0
  8  7  2  0     0  0
  9  1  1  0     0  0
 10  4  1  0     0  0
 11  5  1  0     0  0
 12 10  1  0     0  0
 13 11  1  0     0  0
  4  5  2  0     0  0
M  END
> <ID>
CHEBI:296881

> <NAME>
3,4-dimethoxybenzoic acid

> <DEFINITION>
A member of the class of benzoic acids that is benzoic acid substituted by methoxy groups at positions 2 and 3.

> <STAR>
3

> <SYNONYM>
Veratrylic acid; Veratrumenoic acid; Veratric acid; Dimethylprotocatechuic acid; 3,4-Dimethylprotocatechuic acid; 3,4-Dimethoxybenzoic acid

> <IUPAC_NAME>
3,4-dimethoxybenzoic acid

> <FORMULA>
C9H10O4

> <MASS>
182.17330

> <MONOISOTOPIC_MASS>
182.05791

> <CHARGE>
0

> <SMILES>
COc1ccc(cc1OC)C(O)=O

> <INCHI>
InChI=1S/C9H10O4/c1-12-7-4-3-6(9(10)11)5-8(7)13-2/h3-5H,1-2H3,(H,10,11)

> <INCHIKEY>
DAUAQNGYDSHRET-UHFFFAOYSA-N

> <BEILSTEIN_REGISTRY_NUMBER>
518285

> <CAS_REGISTRY_NUMBER>
93-07-2

> <GMELIN_REGISTRY_NUMBER>
1007934

> <REAXYS_REGISTRY_NUMBER>
518285

> <CHEMIDPLUS>
93-07-2

> <HMDB_ACCESSION>
HMDB0059763

> <LINCS_ACCESSION>
LSM-19990

> <NIST_CHEMISTRY_WEBBOOK>
93-07-2

> <PUBMED_CITATION>
22426778; 23666007; 23753470; 25034806; 3377143; 8911701

$$$$
ChEBI
  Marvin  01040611472D          

 28 31  0  0  0  0            999 V2000
    4.7544   -3.2778    0.0000 P   0  0  0  0  0  0  0  0  0  0  0  0
    4.7475   -2.4384    0.0000 C   0  0  0  0  0  0  0  0  0  0  0  0
    5.4545   -2.0452    0.0000 C   0  0  0  0  0  0  0  0  0  0  0  0
    4.0018   -2.0571    0.0000 C   0  0  0  0  0  0  0  0  0  0  0  0
    5.4476   -1.2058    0.0000 C   0  0  0  0  0  0  0  0  0  0  0  0
    3.9949   -1.2178    0.0000 C   0  0  0  0  0  0  0  0  0  0  0  0
    4.7017   -0.7923    0.0000 C   0  0  0  0  0  0  0  0  0  0  0  0
    4.0154   -3.7035    0.0000 C   0  0  0  0  0  0  0  0  0  0  0  0
    3.3017   -3.2897    0.0000 C   0  0  0  0  0  0  0  0  0  0  0  0
    4.0220   -4.5106    0.0000 C   0  0  0  0  0  0  0  0  0  0  0  0
    2.5950   -3.7152    0.0000 C   0  0  0  0  0  0  0  0  0  0  0  0
    3.3153   -4.9361    0.0000 C   0  0  0  0  0  0  0  0  0  0  0  0
    2.6019   -4.5546    0.0000 C   0  0  0  0  0  0  0  0  0  0  0  0
    6.9208   -3.6796    0.0000 P   0  0  0  0  0  0  0  0  0  0  0  0
    6.9275   -4.4867    0.0000 C   0  0  0  0  0  0  0  0  0  0  0  0
    6.2207   -4.9122    0.0000 C   0  0  0  0  0  0  0  0  0  0  0  0
    7.6411   -4.9005    0.0000 C   0  0  0  0  0  0  0  0  0  0  0  0
    6.2276   -5.7515    0.0000 C   0  0  0  0  0  0  0  0  0  0  0  0
    7.6480   -5.7398    0.0000 C   0  0  0  0  0  0  0  0  0  0  0  0
    6.9410   -6.1331    0.0000 C   0  0  0  0  0  0  0  0  0  0  0  0
    7.6276   -3.2541    0.0000 C   0  0  0  0  0  0  0  0  0  0  0  0
    8.3412   -3.6679    0.0000 C   0  0  0  0  0  0  0  0  0  0  0  0
    7.6206   -2.4148    0.0000 C   0  0  0  0  0  0  0  0  0  0  0  0
    9.0480   -3.2424    0.0000 C   0  0  0  0  0  0  0  0  0  0  0  0
    8.3274   -1.9892    0.0000 C   0  0  0  0  0  0  0  0  0  0  0  0
    9.0411   -2.4030    0.0000 C   0  0  0  0  0  0  0  0  0  0  0  0
    6.1749   -3.2661    0.0000 C   0  0  0  0  0  0  0  0  0  0  0  0
    5.4681   -3.6916    0.0000 C   0  0  0  0  0  0  0  0  0  0  0  0
  2  1  1  0  0  0  0
  8  1  1  0  0  0  0
 28  1  1  0  0  0  0
  3  2  2  0  0  0  0
  4  2  1  0  0  0  0
  5  3  1  0  0  0  0
  6  4  2  0  0  0  0
  7  5  2  0  0  0  0
  7  6  1  0  0  0  0
  9  8  2  0  0  0  0
 10  8  1  0  0  0  0
 11  9  1  0  0  0  0
 12 10  2  0  0  0  0
 13 11  2  0  0  0  0
 13 12  1  0  0  0  0
 15 14  1  0  0  0  0
 21 14  1  0  0  0  0
 27 14  1  0  0  0  0
 16 15  2  0  0  0  0
 17 15  1  0  0  0  0
 18 16  1  0  0  0  0
 19 17  2  0  0  0  0
 20 18  2  0  0  0  0
 20 19  1  0  0  0  0
 22 21  2  0  0  0  0
 23 21  1  0  0  0  0
 24 22  1  0  0  0  0
 25 23  2  0  0  0  0
 26 24  2  0  0  0  0
 26 25  1  0  0  0  0
 28 27  1  0  0  0  0
M  END
> <ID>
CHEBI:30669

> <NAME>
1,2-bis(diphenylphosphino)ethane

> <STAR>
3

> <SYNONYM>
dppe; Diphos; bis(diphenylphosphine)ethane; 1,2-bis(diphenylphosphino)ethane; 1,2-bis(diphenylphosphino)-ethane

> <IUPAC_NAME>
ethane-1,2-diylbis(diphenylphosphane)

> <FORMULA>
C26H24P2

> <MASS>
398.41628

> <MONOISOTOPIC_MASS>
398.13532

> <CHARGE>
0

> <SMILES>
C(CP(c1ccccc1)c1ccccc1)P(c1ccccc1)c1ccccc1

> <INCHI>
InChI=1S/C26H24P2/c1-5-13-23(14-6-1)27(24-15-7-2-8-16-24)21-22-28(25-17-9-3-10-18-25)26-19-11-4-12-20-26/h1-20H,21-22H2

> <INCHIKEY>
QFMZQPDHXULLKC-UHFFFAOYSA-N

> <BEILSTEIN_REGISTRY_NUMBER>
761261

> <CAS_REGISTRY_NUMBER>
1663-45-2

> <GMELIN_REGISTRY_NUMBER>
9052

> <CHEMIDPLUS>
1663-45-2

> <NIST_CHEMISTRY_WEBBOOK>
1663-45-2

$$$$

Marvin  03190711472D          

 10 10  0  0  0  0            999 V2000
    0.0000   -0.8250    0.0000 C   0  0  0  0  0  0  0  0  0  0  0  0
   -0.7145   -0.4125    0.0000 C   0  0  0  0  0  0  0  0  0  0  0  0
    0.7145   -0.4125    0.0000 C   0  0  0  0  0  0  0  0  0  0  0  0
    0.7145    0.4125    0.0000 C   0  0  0  0  0  0  0  0  0  0  0  0
    0.0000    0.8250    0.0000 C   0  0  0  0  0  0  0  0  0  0  0  0
   -0.7145    0.4125    0.0000 C   0  0  0  0  0  0  0  0  0  0  0  0
    2.1434   -0.4125    0.0000 C   0  0  0  0  0  0  0  0  0  0  0  0
    2.1434    0.4125    0.0000 O   0  0  0  0  0  0  0  0  0  0  0  0
    2.8579   -0.8250    0.0000 O   0  0  0  0  0  0  0  0  0  0  0  0
    1.4289   -0.8250    0.0000 C   0  0  0  0  0  0  0  0  0  0  0  0
  2  1  1  0  0  0  0
  1  3  2  0  0  0  0
  3 10  1  0  0  0  0
  4  3  1  0  0  0  0
  5  4  2  0  0  0  0
  6  5  1  0  0  0  0
  6  2  2  0  0  0  0
  8  7  2  0  0  0  0
  9  7  1  0  0  0  0
 10  7  1  0  0  0  0
M  END
> <ID>
CHEBI:30745

> <NAME>
phenylacetic acid

> <DEFINITION>
A monocarboxylic acid that is toluene in which one of the hydrogens of the methyl group has been replaced by a carboxy group.

> <STAR>
3

> <SECONDARY_ID>
CHEBI:25977; CHEBI:44686; CHEBI:8085

> <SYNONYM>
Phenylacetic acid; PA; omega-phenylacetic acid; Omega-Phenylacetic acid; Benzylformic acid; benzeneacetic acid; Benzeneacetic acid; alpha-toluic acid; 2-Phenylethanoic acid; 2-PHENYLACETIC ACID

> <IUPAC_NAME>
phenylacetic acid

> <FORMULA>
C8H8O2

> <MASS>
136.14792

> <MONOISOTOPIC_MASS>
136.05243

> <CHARGE>
0

> <SMILES>
OC(=O)Cc1ccccc1

> <INCHI>
InChI=1S/C8H8O2/c9-8(10)6-7-4-2-1-3-5-7/h1-5H,6H2,(H,9,10)

> <INCHIKEY>
WLJVXDMOQOGPHL-UHFFFAOYSA-N

> <BEILSTEIN_REGISTRY_NUMBER>
1099647

> <CAS_REGISTRY_NUMBER>
103-82-2

> <GMELIN_REGISTRY_NUMBER>
68976

> <REAXYS_REGISTRY_NUMBER>
1099647

> <CHEMIDPLUS>
103-82-2

> <ECMDB_ACCESSION>
ECMDB04128

> <HMDB_ACCESSION>
HMDB0000209

> <KEGG_COMPOUND_ACCESSION>
C07086

> <KNAPSACK_ACCESSION>
C00000750

> <METACYC_ACCESSION>
PHENYLACETATE

> <NIST_CHEMISTRY_WEBBOOK>
103-82-2

> <PDBECHEM_ACCESSION>
PAC

> <WIKIPEDIA_ACCESSION>
Phenylacetic_acid

> <YMDB_ACCESSION>
YMDB00891

> <PUBMED_CITATION>
12147706; 12569987; 15057459; 15506622; 15646820; 17622769; 2083978; 24587751; 24631718; 7544181; 7716788

$$$$

Marvin  06110722242D          

  9  9  0  0  0  0            999 V2000
   -0.7145    0.4125    0.0000 C   0  0  0  0  0  0  0  0  0  0  0  0
   -0.7145   -0.4125    0.0000 C   0  0  0  0  0  0  0  0  0  0  0  0
    0.7145    0.4125    0.0000 C   0  0  0  0  0  0  0  0  0  0  0  0
    0.0000    0.8250    0.0000 C   0  0  0  0  0  0  0  0  0  0  0  0
    0.0000   -0.8250    0.0000 C   0  0  0  0  0  0  0  0  0  0  0  0
    0.7145   -0.4125    0.0000 C   0  0  0  0  0  0  0  0  0  0  0  0
    2.1434    0.4124    0.0000 O   0  0  0  0  0  0  0  0  0  0  0  0
    1.4289    0.8249    0.0000 C   0  0  0  0  0  0  0  0  0  0  0  0
    1.4289    1.6499    0.0000 O   0  0  0  0  0  0  0  0  0  0  0  0
  1  2  2  0  0  0  0
  8  3  1  0  0  0  0
  4  1  1  0  0  0  0
  3  4  2  0  0  0  0
  5  2  1  0  0  0  0
  6  3  1  0  0  0  0
  5  6  2  0  0  0  0
  7  8  1  0  0  0  0
  8  9  2  0  0  0  0
M  END
> <ID>
CHEBI:30746

> <NAME>
benzoic acid

> <DEFINITION>
A compound comprising a benzene ring core carrying a carboxylic acid substituent.

> <STAR>
3

> <SECONDARY_ID>
CHEBI:22722; CHEBI:41051; CHEBI:3029

> <SYNONYM>
Phenylformic acid; Phenylcarboxylic acid; E210; Dracylic acid; BENZOIC ACID; Benzoic acid; Benzoesaeure; Benzenemethanoic acid; Benzeneformic acid; Benzenecarboxylic acid; Aromatic carboxylic acid; acide benzoique

> <IUPAC_NAME>
benzoic acid

> <FORMULA>
C7H6O2

> <MASS>
122.12130

> <MONOISOTOPIC_MASS>
122.03678

> <CHARGE>
0

> <SMILES>
OC(=O)c1ccccc1

> <INCHI>
InChI=1S/C7H6O2/c8-7(9)6-4-2-1-3-5-6/h1-5H,(H,8,9)

> <INCHIKEY>
WPYMKLBDIGXBTP-UHFFFAOYSA-N

> <BEILSTEIN_REGISTRY_NUMBER>
636131

> <CAS_REGISTRY_NUMBER>
65-85-0

> <GMELIN_REGISTRY_NUMBER>
2946

> <REAXYS_REGISTRY_NUMBER>
636131

> <CHEMIDPLUS>
65-85-0

> <DRUGBANK_ACCESSION>
DB03793

> <HMDB_ACCESSION>
HMDB0001870

> <KEGG_COMPOUND_ACCESSION>
C00180

> <KEGG_DRUG_ACCESSION>
D00038

> <KNAPSACK_ACCESSION>
C00000207

> <LINCS_ACCESSION>
LSM-37118

> <METACYC_ACCESSION>
BENZOATE

> <NIST_CHEMISTRY_WEBBOOK>
65-85-0

> <PDBECHEM_ACCESSION>
BEZ

> <WIKIPEDIA_ACCESSION>
Benzoic_Acid

> <YMDB_ACCESSION>
YMDB02301

> <PUBMED_CITATION>
16728954; 17439666; 18314336

$$$$

Ketcher 04191811092D 1   1.00000     0.00000     0

 10 10  0     0  0            999 V2000
   11.8896   -7.8949    0.0000 C   0  0  0  0  0  0  0  0  0  0  0  0
   12.7562   -7.4032    0.0000 C   0  0  0  0  0  0  0  0  0  0  0  0
   11.8896   -8.8986    0.0000 C   0  0  0  0  0  0  0  0  0  0  0  0
   11.0189   -7.3992    0.0000 C   0  0  0  0  0  0  0  0  0  0  0  0
   13.6143   -7.8989    0.0000 O   0  0  0  0  0  0  0  0  0  0  0  0
   12.7562   -6.4034    0.0000 O   0  0  0  0  0  0  0  0  0  0  0  0
   11.0189   -9.3986    0.0000 C   0  0  0  0  0  0  0  0  0  0  0  0
   10.1526   -7.8949    0.0000 C   0  0  0  0  0  0  0  0  0  0  0  0
   10.1526   -8.8986    0.0000 C   0  0  0  0  0  0  0  0  0  0  0  0
    9.2902   -9.4069    0.0000 N   0  0  0  0  0  0  0  0  0  0  0  0
  1  2  1  0     0  0
  1  3  2  0     0  0
  1  4  1  0     0  0
  2  5  1  0     0  0
  2  6  2  0     0  0
  3  7  1  0     0  0
  4  8  2  0     0  0
  7  9  2  0     0  0
  9 10  1  0     0  0
  8  9  1  0     0  0
M  END
> <ID>
CHEBI:30753

> <NAME>
4-aminobenzoic acid

> <DEFINITION>
An aminobenzoic acid in which the amino group is para to the carboxy group.

> <STAR>
3

> <SECONDARY_ID>
CHEBI:44778; CHEBI:113372; CHEBI:1783; CHEBI:20315

> <SYNONYM>
para-aminobenzoic acid; PABA; p-carboxyphenylamine; p-carboxyaniline; p-aminobenzoic acid; p-Aminobenzoesaeure; gamma-Aminobenzoic acid; gamma-aminobenzoic acid; ABEE; 4-Carboxyphenylamine; 4-Carboxyaniline; 4-AMINOBENZOIC ACID; 4-Aminobenzoic acid; 4-Aminobenzoesaeure; 4-Amino-benzoic acid; 1-Amino-4-carboxybenzene

> <IUPAC_NAME>
4-aminobenzoic acid

> <FORMULA>
C7H7NO2

> <MASS>
137.136

> <MONOISOTOPIC_MASS>
137.04768

> <CHARGE>
0

> <SMILES>
C1(C(O)=O)=CC=C(N)C=C1

> <INCHI>
InChI=1S/C7H7NO2/c8-6-3-1-5(2-4-6)7(9)10/h1-4H,8H2,(H,9,10)

> <INCHIKEY>
ALYNCZNDIQEVRV-UHFFFAOYSA-N

> <BEILSTEIN_REGISTRY_NUMBER>
471605

> <CAS_REGISTRY_NUMBER>
150-13-0

> <GMELIN_REGISTRY_NUMBER>
50150

> <REAXYS_REGISTRY_NUMBER>
471605

> <CHEMIDPLUS>
150-13-0

> <DRUGBANK_ACCESSION>
DB02362

> <ECMDB_ACCESSION>
ECMDB01392

> <HMDB_ACCESSION>
HMDB0001392

> <KEGG_COMPOUND_ACCESSION>
C00568

> <KEGG_DRUG_ACCESSION>
D02456

> <KNAPSACK_ACCESSION>
C00001401

> <NIST_CHEMISTRY_WEBBOOK>
150-13-0

> <PDBECHEM_ACCESSION>
PAB

> <WIKIPEDIA_ACCESSION>
4-Aminobenzoic_acid

> <YMDB_ACCESSION>
YMDB00493

> <PUBMED_CITATION>
14745019; 17743450; 17800214; 19469519; 22767283; 22994574; 23063996; 23084339; 23144588; 23471007; 12039592; 15115392; 1527790; 16290145; 17149871; 3599019; 3820215; 3950915; 8411009; 9406595

$$$$

Marvin  12091018052D          

 22 22  0  0  0  0            999 V2000
   15.1886  -14.1532    0.0000 C   0  0  0  0  0  0  0  0  0  0  0  0
   14.0098  -13.4979    0.0000 C   0  0  0  0  0  0  0  0  0  0  0  0
   14.0102  -12.1093    0.0000 C   0  0  0  0  0  0  0  0  0  0  0  0
   15.1566  -11.4349    0.0000 C   0  0  0  0  0  0  0  0  0  0  0  0
   16.3354  -12.0902    0.0000 C   0  0  0  0  0  0  0  0  0  0  0  0
   16.3678  -13.4198    0.0000 C   0  0  0  0  0  0  0  0  0  0  0  0
   17.4818  -11.4158    0.0000 C   0  0  0  0  0  0  0  0  0  0  0  0
   18.6281  -12.0902    0.0000 O   0  0  0  0  0  0  0  0  0  0  0  0
   19.8419  -11.4159    0.0000 C   0  0  0  0  0  0  0  0  0  0  0  0
   20.9882  -12.0902    0.0000 C   0  0  0  0  0  0  0  0  0  0  0  0
   22.1346  -11.4159    0.0000 N   0  0  0  0  0  0  0  0  0  0  0  0
   23.3484  -12.0902    0.0000 C   0  0  0  0  0  0  0  0  0  0  0  0
   24.4947  -11.4159    0.0000 C   0  0  0  0  0  0  0  0  0  0  0  0
   17.4818  -10.0672    0.0000 O   0  0  0  0  0  0  0  0  0  0  0  0
   22.1346  -10.0672    0.0000 C   0  0  0  0  0  0  0  0  0  0  0  0
   23.3484   -9.3928    0.0000 C   0  0  0  0  0  0  0  0  0  0  0  0
   12.8635  -14.1722    0.0000 N   0  0  0  0  0  0  0  0  0  0  0  0
   15.2211  -15.4828    0.0000 O   0  0  0  0  0  0  0  0  0  0  0  0
   16.3990  -16.1004    0.0000 C   0  0  0  0  0  0  0  0  0  0  0  0
   17.5784  -15.3677    0.0000 C   0  0  0  0  0  0  0  0  0  0  0  0
   18.7563  -15.9853    0.0000 C   0  0  0  0  0  0  0  0  0  0  0  0
   19.8684  -15.2559    0.0000 C   0  0  0  0  0  0  0  0  0  0  0  0
 10 11  1  0  0  0  0
  4  5  1  0  0  0  0
 11 12  1  0  0  0  0
  5  6  2  0  0  0  0
 12 13  1  0  0  0  0
  6  1  1  0  0  0  0
  7 14  2  0  0  0  0
 11 15  1  0  0  0  0
  5  7  1  0  0  0  0
 15 16  1  0  0  0  0
  2 17  1  0  0  0  0
  7  8  1  0  0  0  0
  1 18  1  0  0  0  0
  1  2  2  0  0  0  0
 18 19  1  0  0  0  0
  8  9  1  0  0  0  0
 19 20  1  0  0  0  0
  2  3  1  0  0  0  0
 20 21  1  0  0  0  0
  9 10  1  0  0  0  0
 21 22  1  0  0  0  0
  3  4  2  0  0  0  0
M  END
> <ID>
CHEBI:309594

> <NAME>
oxybuprocaine

> <DEFINITION>
A benzoate ester in which 4-amino-3-butoxybenzoic acid and 2-(diethylamino)ethanol have combined to form the ester bond; an ester-based local anaesthetic (ester "caine") used especially in ophthalmology and otolaryngology.

> <STAR>
3

> <SYNONYM>
Oxyriprocaine; Oxybucaine; Oxibuprokain; Oxbarukain; Butoxyaminobenzoyldiethylaminoethanol; BENOXINATE; Benoxinate; Benoxil; 4-Amino-3-n-butoxy-benzoesaeure-diaethylaminoaethylester; 4-Amino-3-butoxy-benzoic acid 2-diethylamino-ethyl ester; 4-Amino-3-butoxy-2-(diethylamino)ethyl ester benzoic acid

> <IUPAC_NAME>
2-(diethylamino)ethyl 4-amino-3-butoxybenzoate

> <INN>
oxybuprocainum; oxybuprocaine; oxibuprocaina

> <FORMULA>
C17H28N2O3

> <MASS>
308.41580

> <MONOISOTOPIC_MASS>
308.20999

> <CHARGE>
0

> <SMILES>
CCCCOc1cc(ccc1N)C(=O)OCCN(CC)CC

> <INCHI>
InChI=1S/C17H28N2O3/c1-4-7-11-21-16-13-14(8-9-15(16)18)17(20)22-12-10-19(5-2)6-3/h8-9,13H,4-7,10-12,18H2,1-3H3

> <INCHIKEY>
CMHHMUWAYWTMGS-UHFFFAOYSA-N

> <BEILSTEIN_REGISTRY_NUMBER>
2288926

> <CAS_REGISTRY_NUMBER>
99-43-4

> <REAXYS_REGISTRY_NUMBER>
2288926

> <CHEMIDPLUS>
99-43-4

> <DRUGBANK_ACCESSION>
DB00892

> <HMDB_ACCESSION>
HMDB0015029

> <KEGG_DRUG_ACCESSION>
D08319

> <LINCS_ACCESSION>
LSM-2069

> <NIST_CHEMISTRY_WEBBOOK>
99-43-4

> <WIKIPEDIA_ACCESSION>
Oxybuprocaine

> <PUBMED_CITATION>
25360701; 3598888; 6621359; 8214534; 9013953; 9989796

$$$$

Marvin  11091217262D          

 15 15  0  0  0  0            999 V2000
   11.9287   -5.6543    0.0000 C   0  0  0  0  0  0  0  0  0  0  0  0
   11.9287   -4.8177    0.0000 C   0  0  0  0  0  0  0  0  0  0  0  0
   12.6398   -4.3995    0.0000 C   0  0  0  0  0  0  0  0  0  0  0  0
   13.3927   -4.8177    0.0000 C   0  0  0  0  0  0  0  0  0  0  0  0
   13.3927   -5.6543    0.0000 C   0  0  0  0  0  0  0  0  0  0  0  0
   12.6398   -6.0726    0.0000 C   0  0  0  0  0  0  0  0  0  0  0  0
   14.1038   -4.3995    0.0000 C   0  0  0  0  0  0  0  0  0  0  0  0
   11.2176   -6.0726    0.0000 O   0  0  0  0  0  0  0  0  0  0  0  0
   11.2176   -4.3995    0.0000 Cl  0  0  0  0  0  0  0  0  0  0  0  0
   10.4647   -5.6543    0.0000 C   0  0  0  0  0  0  0  0  0  0  0  0
    9.7536   -6.0726    0.0000 C   0  0  0  0  0  0  0  0  0  0  0  0
    9.0425   -5.6543    0.0000 C   0  0  0  0  0  0  0  0  0  0  0  0
   14.8149   -4.8177    0.0000 C   0  0  0  0  0  0  0  0  0  0  0  0
   15.5678   -4.3995    0.0000 O   0  0  0  0  0  0  0  0  0  0  0  0
   14.8149   -5.6543    0.0000 O   0  0  0  0  0  0  0  0  0  0  0  0
  1  2  2  0  0  0  0
  1  8  1  0  0  0  0
  2  3  1  0  0  0  0
  2  9  1  0  0  0  0
  3  4  2  0  0  0  0
  8 10  1  0  0  0  0
  4  5  1  0  0  0  0
 10 11  1  0  0  0  0
  5  6  2  0  0  0  0
 11 12  2  0  0  0  0
  6  1  1  0  0  0  0
  7 13  1  0  0  0  0
 13 14  1  0  0  0  0
  4  7  1  0  0  0  0
 13 15  2  0  0  0  0
M  END
> <ID>
CHEBI:31183

> <NAME>
alclofenac

> <DEFINITION>
An aromatic ether in which the ether oxygen links an allyl group to the 4-position of (3-chlorophenyl)acetic acid.A non-steroidal anti-inflammatory drug, it was withdrawn from the UK market in 1979 due to concerns with its association with vasculitis and rash.

> <STAR>
3

> <SYNONYM>
[4-(allyloxy)-3-chlorophenyl]acetic acid; 3-Chloro-4-(2-propenyloxy)benzeneacetic acid; (4-Allyloxy-3-chlorphenyl)essigsaeure

> <IUPAC_NAME>
[3-chloro-4-(prop-2-en-1-yloxy)phenyl]acetic acid

> <INN>
alclofenacum; alclofenaco; alclofenac; alclofenac

> <FORMULA>
C11H11ClO3

> <MASS>
226.65600

> <MONOISOTOPIC_MASS>
226.03967

> <CHARGE>
0

> <SMILES>
OC(=O)Cc1ccc(OCC=C)c(Cl)c1

> <INCHI>
InChI=1S/C11H11ClO3/c1-2-5-15-10-4-3-8(6-9(10)12)7-11(13)14/h2-4,6H,1,5,7H2,(H,13,14)

> <INCHIKEY>
ARHWPKZXBHOEEE-UHFFFAOYSA-N

> <CAS_REGISTRY_NUMBER>
22131-79-9

> <REAXYS_REGISTRY_NUMBER>
2116510

> <CHEMIDPLUS>
22131-79-9

> <KEGG_DRUG_ACCESSION>
D01252

> <WIKIPEDIA_ACCESSION>
Alclofenac

> <PUBMED_CITATION>
18796; 19205; 21068; 236805; 237493; 241593; 241595; 241596; 241597; 241598; 241600; 241601; 241602; 241603; 24426; 4279126; 509935; 6103793; 6106453; 6109575; 6120697; 6141199; 7853459; 7905004

$$$$

Marvin  11040517282D          

 13 13  0  0  0  0            999 V2000
    0.9730    0.9630    0.0000 C   0  0  0  0  0  0  0  0  0  0  0  0
    0.2585    1.3756    0.0000 O   0  0  0  0  0  0  0  0  0  0  0  0
    1.6875    1.3755    0.0000 N   0  0  0  0  0  0  0  0  0  0  0  0
    2.4020    0.9630    0.0000 C   0  0  0  0  0  0  0  0  0  0  0  0
    3.1165    1.3755    0.0000 O   0  0  0  0  0  0  0  0  0  0  0  0
    2.4019    0.1381    0.0000 N   0  0  0  0  0  0  0  0  0  0  0  0
    1.6875   -0.2744    0.0000 C   0  0  0  0  0  0  0  0  0  0  0  0
    1.6875   -1.0995    0.0000 O   0  0  0  0  0  0  0  0  0  0  0  0
    0.9730    0.1380    0.0000 C   0  0  3  0  0  0  0  0  0  0  0  0
    0.1481    0.1381    0.0000 C   0  0  0  0  0  0  0  0  0  0  0  0
   -0.2644    0.8525    0.0000 C   0  0  0  0  0  0  0  0  0  0  0  0
    0.5606   -0.5764    0.0000 C   0  0  0  0  0  0  0  0  0  0  0  0
   -0.2644   -0.5764    0.0000 C   0  0  0  0  0  0  0  0  0  0  0  0
  9  1  1  0  0  0  0
  1  2  2  0  0  0  0
  1  3  1  0  0  0  0
  3  4  1  0  0  0  0
  4  5  2  0  0  0  0
  4  6  1  0  0  0  0
  6  7  1  0  0  0  0
  9  7  1  0  0  0  0
  7  8  2  0  0  0  0
  9 10  1  0  0  0  0
  9 12  1  0  0  0  0
 10 11  1  0  0  0  0
 12 13  1  0  0  0  0
M  END
> <ID>
CHEBI:31252

> <NAME>
5,5-diethylbarbituric acid

> <DEFINITION>
A member of the class of barbiturates, the structure of which is that of barbituric acid substituted at C-5 by two ethyl groups. Formerly used as a hypnotic (sleeping aid).

> <STAR>
3

> <SECONDARY_ID>
CHEBI:102256

> <SYNONYM>
Veronal; diethylmalonyl urea; DEBA; Barbitone; Barbital; 5,5-diethylpyrimidine-2,4,6(1H,3H,5H)-trione; 5,5-diethylbarbituric acid; 5,5-Diethyl-pyrimidine-2,4,6-trione; 2,4,6(1H,3H,5H)-pyrimidinetrione

> <IUPAC_NAME>
5,5-diethylpyrimidine-2,4,6(1H,3H,5H)-trione

> <FORMULA>
C8H12N2O3

> <MASS>
184.19256

> <MONOISOTOPIC_MASS>
184.08479

> <CHARGE>
0

> <SMILES>
CCC1(CC)C(=O)NC(=O)NC1=O

> <INCHI>
InChI=1S/C8H12N2O3/c1-3-8(4-2)5(11)9-7(13)10-6(8)12/h3-4H2,1-2H3,(H2,9,10,11,12,13)

> <INCHIKEY>
FTOAOBMCPZCFFF-UHFFFAOYSA-N

> <BEILSTEIN_REGISTRY_NUMBER>
163999

> <CAS_REGISTRY_NUMBER>
57-44-3

> <GMELIN_REGISTRY_NUMBER>
4113

> <REAXYS_REGISTRY_NUMBER>
163999

> <CHEMIDPLUS>
57-44-3

> <DRUGBANK_ACCESSION>
DB01483

> <KEGG_DRUG_ACCESSION>
D01740

> <NIST_CHEMISTRY_WEBBOOK>
57-44-3

> <WIKIPEDIA_ACCESSION>
Barbital

> <PUBMED_CITATION>
20681553; 22467201; 3654008; 10866370; 15857133; 17827020; 6864729

$$$$

Ketcher 03141809532D 1   1.00000     0.00000     0

 26 28  0     1  0            999 V2000
   20.7327  -10.6321    0.0000 C   0  0  0  0  0  0  0  0  0  0  0  0
   20.7327  -11.6311    0.0000 N   0  0  0  0  0  0  0  0  0  0  0  0
   21.5978  -12.1304    0.0000 C   0  0  0  0  0  0  0  0  0  0  0  0
   22.4629  -11.6311    0.0000 C   0  0  0  0  0  0  0  0  0  0  0  0
   22.4629  -10.6321    0.0000 C   0  0  0  0  0  0  0  0  0  0  0  0
   21.5978  -10.1327    0.0000 S   0  0  0  0  0  0  0  0  0  0  0  0
   19.7338  -10.6321    0.0000 C   0  0  0  0  0  0  0  0  0  0  0  0
   19.7338  -11.6311    0.0000 C   0  0  0  0  0  0  0  0  0  0  0  0
   18.8688  -10.1327    0.0000 N   0  0  0  0  0  0  0  0  0  0  0  0
   18.0035  -10.6321    0.0000 C   0  0  0  0  0  0  0  0  0  0  0  0
   18.0035  -11.6311    0.0000 O   0  0  0  0  0  0  0  0  0  0  0  0
   18.8688  -12.1304    0.0000 O   0  0  0  0  0  0  0  0  0  0  0  0
   17.1386  -10.1327    0.0000 C   0  0  0  0  0  0  0  0  0  0  0  0
   23.3413  -12.1383    0.0000 O   0  0  0  0  0  0  0  0  0  0  0  0
   21.5978  -13.1291    0.0000 C   0  0  0  0  0  0  0  0  0  0  0  0
   20.7207  -13.6357    0.0000 O   0  0  0  0  0  0  0  0  0  0  0  0
   22.4508  -13.6218    0.0000 O   0  0  0  0  0  0  0  0  0  0  0  0
   16.2595  -10.6404    0.0000 C   0  0  0  0  0  0  0  0  0  0  0  0
   15.3954  -10.1416    0.0000 C   0  0  0  0  0  0  0  0  0  0  0  0
   14.5314  -10.6404    0.0000 C   0  0  0  0  0  0  0  0  0  0  0  0
   14.5314  -11.6380    0.0000 C   0  0  0  0  0  0  0  0  0  0  0  0
   15.3954  -12.1370    0.0000 C   0  0  0  0  0  0  0  0  0  0  0  0
   16.2595  -11.6380    0.0000 C   0  0  0  0  0  0  0  0  0  0  0  0
   17.1386   -9.1304    0.0000 N   0  0  0  0  0  0  0  0  0  0  0  0
   20.7327   -9.6322    0.0000 H   0  0  0  0  0  0  0  0  0  0  0  0
   24.2083  -11.6379    0.0000 C   0  0  0  0  0  0  0  0  0  0  0  0
  1  2  1  0     0  0
  2  3  1  0     0  0
  3  4  2  0     0  0
  4  5  1  0     0  0
  5  6  1  0     0  0
  1  6  1  0     0  0
  1  7  1  0     0  0
  7  8  1  0     0  0
  2  8  1  0     0  0
  7  9  1  1     0  0
  9 10  1  0     0  0
 10 11  2  0     0  0
  8 12  2  0     0  0
 10 13  1  0     0  0
  4 14  1  0     0  0
  3 15  1  0     0  0
 15 16  2  0     0  0
 15 17  1  0     0  0
 13 18  1  0     0  0
 18 19  1  0     0  0
 19 20  1  0     0  0
 20 21  2  0     0  0
 21 22  1  0     0  0
 22 23  1  0     0  0
 18 23  2  0     0  0
 13 24  1  1     0  0
  1 25  1  6     0  0
 14 26  1  0     0  0
M  END
> <ID>
CHEBI:31379

> <NAME>
cefroxadine

> <DEFINITION>
A first-generation cephalosporin antibiotic having methoxy and [(2R)-2-amino-2-(cyclohexa-1,4-dien-1-yl)acetyl]amino side groups located at positions 3 and 7 respectively.

> <STAR>
3

> <SYNONYM>
CXD; (6R,7R)-7-{[(2R)-2-amino-2-(cyclohexa-1,4-dien-1-yl)acetyl]amino}-3-methoxy-8-oxo-5-thia-1-azabicyclo[4.2.0]oct-2-ene-2-carboxylic acid

> <IUPAC_NAME>
7-{[(2R)-2-amino-2-(cyclohexa-1,4-dien-1-yl)acetyl]amino}-3-methoxy-3,4-didehydrocepham-4-carboxylic acid

> <INN>
cefroxadinum; cefroxadino; cefroxadine; cefroxadine

> <FORMULA>
C16H19N3O5S

> <MASS>
365.406

> <MONOISOTOPIC_MASS>
365.10454

> <CHARGE>
0

> <SMILES>
[C@]12(N(C(=C(CS1)OC)C(=O)O)C([C@H]2NC(=O)[C@@H](C=3CC=CCC3)N)=O)[H]

> <INCHI>
InChI=1S/C16H19N3O5S/c1-24-9-7-25-15-11(14(21)19(15)12(9)16(22)23)18-13(20)10(17)8-5-3-2-4-6-8/h2-3,6,10-11,15H,4-5,7,17H2,1H3,(H,18,20)(H,22,23)/t10-,11-,15-/m1/s1

> <INCHIKEY>
RDMOROXKXONCAL-UEKVPHQBSA-N

> <CAS_REGISTRY_NUMBER>
51762-05-1

> <REAXYS_REGISTRY_NUMBER>
8165480

> <KEGG_COMPOUND_ACCESSION>
C12979

> <KEGG_DRUG_ACCESSION>
D01528

> <WIKIPEDIA_ACCESSION>
Cefroxadine

> <PUBMED_CITATION>
2258253; 29017833; 6752462; 7334594

$$$$
ChEBI
  Marvin  10160816132D          

 34 37  0  0  1  0            999 V2000
   20.9100  -11.6149    0.0000 C   0  0  0  0  0  0  0  0  0  0  0  0
   20.1954  -12.0273    0.0000 C   0  0  0  0  0  0  0  0  0  0  0  0
   19.4810  -11.6149    0.0000 C   0  0  0  0  0  0  0  0  0  0  0  0
   18.7665  -12.0273    0.0000 C   0  0  0  0  0  0  0  0  0  0  0  0
   18.0520  -10.7899    0.0000 C   0  0  0  0  0  0  0  0  0  0  0  0
   18.7665  -10.3774    0.0000 C   0  0  0  0  0  0  0  0  0  0  0  0
   20.9100   -9.1399    0.0000 C   0  0  0  0  0  0  0  0  0  0  0  0
   22.8940   -9.9649    0.0000 C   0  0  0  0  0  0  0  0  0  0  0  0
   22.4091  -10.6323    0.0000 C   0  0  0  0  0  0  0  0  0  0  0  0
   20.1954  -10.3774    0.0000 C   0  0  2  0  0  0  0  0  0  0  0  0
   20.1954  -11.2024    0.0000 H   0  0  0  0  0  0  0  0  0  0  0  0
   21.6244  -10.3774    0.0000 C   0  0  1  0  0  0  0  0  0  0  0  0
   21.6244  -11.2024    0.0000 H   0  0  0  0  0  0  0  0  0  0  0  0
   20.9100  -10.7899    0.0000 C   0  0  2  0  0  0  0  0  0  0  0  0
   20.9100   -9.9649    0.0000 H   0  0  0  0  0  0  0  0  0  0  0  0
   21.6244   -9.5524    0.0000 C   0  0  1  0  0  0  0  0  0  0  0  0
   22.4091   -9.2974    0.0000 C   0  0  1  0  0  0  0  0  0  0  0  0
   18.0520  -11.6149    0.0000 C   0  0  0  0  0  0  0  0  0  0  0  0
   17.3375  -12.0274    0.0000 O   0  0  0  0  0  0  0  0  0  0  0  0
   20.1954   -9.5524    0.0000 C   0  0  1  0  0  0  0  0  0  0  0  0
   19.4809   -9.1399    0.0000 O   0  0  0  0  0  0  0  0  0  0  0  0
   22.4091   -8.4724    0.0000 C   0  0  0  0  0  0  0  0  0  0  0  0
   21.6946   -8.0599    0.0000 O   0  0  0  0  0  0  0  0  0  0  0  0
   23.1236   -8.0599    0.0000 C   0  0  0  0  0  0  0  0  0  0  0  0
   23.1236   -8.8849    0.0000 O   0  0  0  0  0  0  0  0  0  0  0  0
   21.6244   -8.7274    0.0000 C   0  0  0  0  0  0  0  0  0  0  0  0
   19.4810  -10.7899    0.0000 C   0  0  2  0  0  0  0  0  0  0  0  0
   19.4810   -9.9649    0.0000 C   0  0  0  0  0  0  0  0  0  0  0  0
   23.8381   -9.2974    0.0000 C   0  0  0  0  0  0  0  0  0  0  0  0
   23.8381  -10.1224    0.0000 O   0  0  0  0  0  0  0  0  0  0  0  0
   24.5525   -8.8849    0.0000 C   0  0  0  0  0  0  0  0  0  0  0  0
   25.2670   -9.2974    0.0000 C   0  0  0  0  0  0  0  0  0  0  0  0
   25.9815   -8.8849    0.0000 C   0  0  0  0  0  0  0  0  0  0  0  0
   23.1236   -7.2349    0.0000 O   0  0  0  0  0  0  0  0  0  0  0  0
 14  1  1  0  0  0  0
 14 10  1  0  0  0  0
 14 12  1  0  0  0  0
  1  2  1  0  0  0  0
  2  3  1  0  0  0  0
  3  4  2  0  0  0  0
  3 27  1  0  0  0  0
  4 18  1  0  0  0  0
 18  5  1  0  0  0  0
  5  6  1  0  0  0  0
  6 27  1  0  0  0  0
 27 10  1  0  0  0  0
 10 20  1  0  0  0  0
 20  7  1  0  0  0  0
  7 16  1  0  0  0  0
 16 17  1  0  0  0  0
 16 12  1  0  0  0  0
 17  8  1  0  0  0  0
  8  9  1  0  0  0  0
  9 12  1  0  0  0  0
 10 11  1  6  0  0  0
 12 13  1  6  0  0  0
 14 15  1  1  0  0  0
 17 25  1  6  0  0  0
 17 22  1  0  0  0  0
 22 24  1  0  0  0  0
 18 19  2  0  0  0  0
 20 21  1  1  0  0  0
 22 23  2  0  0  0  0
 16 26  1  1  0  0  0
 27 28  1  1  0  0  0
 25 29  1  0  0  0  0
 29 30  2  0  0  0  0
 29 31  1  0  0  0  0
 31 32  1  0  0  0  0
 32 33  1  0  0  0  0
 24 34  1  0  0  0  0
M  END
> <ID>
CHEBI:31674

> <NAME>
cortisol 17-butyrate

> <DEFINITION>
Cortisol esterified with butyric acid at the 17-hydroxy group.

> <STAR>
3

> <SYNONYM>
Hydrocortisone-17alpha-butyrate; Hydrocortisone butyrate; Hydrocortisone 17-butyrate; H-17-B; 17-O-butyrylcortisol; 11beta,21-dihydroxy-17alpha-butyryloxy-4-pregnene-3,20-dione

> <IUPAC_NAME>
11beta,21-dihydroxy-3,20-dioxopregn-4-en-17-yl butanoate

> <FORMULA>
C25H36O6

> <MASS>
432.54974

> <MONOISOTOPIC_MASS>
432.25119

> <CHARGE>
0

> <SMILES>
[H][C@@]12CCC3=CC(=O)CC[C@]3(C)[C@@]1([H])[C@@H](O)C[C@@]1(C)[C@@]2([H])CC[C@]1(OC(=O)CCC)C(=O)CO

> <INCHI>
InChI=1S/C25H36O6/c1-4-5-21(30)31-25(20(29)14-26)11-9-18-17-7-6-15-12-16(27)8-10-23(15,2)22(17)19(28)13-24(18,25)3/h12,17-19,22,26,28H,4-11,13-14H2,1-3H3/t17-,18-,19-,22+,23-,24-,25-/m0/s1

> <INCHIKEY>
BMCQMVFGOVHVNG-TUFAYURCSA-N

> <BEILSTEIN_REGISTRY_NUMBER>
3634702

> <CAS_REGISTRY_NUMBER>
13609-67-1

> <REAXYS_REGISTRY_NUMBER>
3634702

> <CHEMIDPLUS>
13609-67-1

> <DRUGBANK_ACCESSION>
DB00741

> <KEGG_DRUG_ACCESSION>
D01619

> <WIKIPEDIA_ACCESSION>
Hydrocortisone-17-Butyrate

> <PUBMED_CITATION>
16566122; 2265088; 24504495; 26085051

$$$$

11280715462D 1   1.00000     0.00000     0

 18 19  0     0  0            999 V2000
    3.5167    0.0750    0.0000 C   0  0  0  0  0  0           0  0  0
    2.9000    0.6250    0.0000 S   0  0  0  0  0  0           0  0  0
    2.1875    0.2083    0.0000 C   0  0  0  0  0  0           0  0  0
    4.3292    0.2458    0.0000 C   0  0  3  0  0  0           0  0  0
    1.4667    0.6208    0.0000 C   0  0  0  0  0  0           0  0  0
    3.1875   -0.6792    0.0000 C   0  0  0  0  0  0           0  0  0
    2.3667   -0.6000    0.0000 C   0  0  0  0  0  0           0  0  0
    4.8750   -0.3750    0.0000 C   0  0  0  0  0  0           0  0  0
    1.4625    1.4458    0.0000 O   0  0  0  0  0  0           0  0  0
    5.6792   -0.2042    0.0000 O   0  0  0  0  0  0           0  0  0
    0.7417    0.2000    0.0000 C   0  0  0  0  0  0           0  0  0
    4.6125   -1.1542    0.0000 O   0  0  0  0  0  0           0  0  0
    4.5917    1.0208    0.0000 C   0  0  0  0  0  0           0  0  0
    0.7417   -0.6292    0.0000 C   0  0  0  0  0  0           0  0  0
    0.0292    0.6125    0.0000 C   0  0  0  0  0  0           0  0  0
    0.0292   -1.0417    0.0000 C   0  0  0  0  0  0           0  0  0
   -0.6833    0.2000    0.0000 C   0  0  0  0  0  0           0  0  0
   -0.6833   -0.6292    0.0000 C   0  0  0  0  0  0           0  0  0
  2  1  1  0     0  0
  3  2  1  0     0  0
  4  1  1  0     0  0
  5  3  1  0     0  0
  6  1  2  0     0  0
  7  6  1  0     0  0
  8  4  1  0     0  0
  9  5  2  0     0  0
 10  8  2  0     0  0
 11  5  1  0     0  0
 12  8  1  0     0  0
 13  4  1  0     0  0
 14 11  1  0     0  0
 15 11  2  0     0  0
 16 14  2  0     0  0
 17 15  1  0     0  0
 18 17  2  0     0  0
  7  3  2  0     0  0
 16 18  1  0     0  0
M  END
> <ID>
CHEBI:32221

> <NAME>
tiaprofenic acid

> <DEFINITION>
An aromatic ketone that is thiophene substituted at C-2 by benzoyl and at C-4 by a 1-carboxyethyl group.

> <STAR>
3

> <SECONDARY_ID>
CHEBI:417367

> <SYNONYM>
Tiaprofensaeure; alpha-methyl-5-benzoyl-2-thienylacetic acid; 5-benzoyl-alpha-methylthiophene-2-acetic acid; 5-benzoyl-alpha-methyl-2-thiopheneacetic acid; 2-(5-Benzyl-2-thienyl)propionsaeure; 2-(5-Benzoyl-thiophen-2-yl)-propionic acid

> <IUPAC_NAME>
2-(5-benzoylthiophen-2-yl)propanoic acid

> <INN>
tiaprofenic acid; acidum tiaprofenicum; acido tiaprofenico; acide tiaprofenique

> <FORMULA>
C14H12O3S

> <MASS>
260.30800

> <MONOISOTOPIC_MASS>
260.05072

> <CHARGE>
0

> <SMILES>
CC(C(O)=O)c1ccc(s1)C(=O)c1ccccc1

> <INCHI>
InChI=1S/C14H12O3S/c1-9(14(16)17)11-7-8-12(18-11)13(15)10-5-3-2-4-6-10/h2-9H,1H3,(H,16,17)

> <INCHIKEY>
GUHPRPJDBZHYCJ-UHFFFAOYSA-N

> <BEILSTEIN_REGISTRY_NUMBER>
1380662

> <CAS_REGISTRY_NUMBER>
33005-95-7

> <REAXYS_REGISTRY_NUMBER>
1380662

> <DRUGBANK_ACCESSION>
DB01600

> <KEGG_DRUG_ACCESSION>
D01325

> <LINCS_ACCESSION>
LSM-1769

> <WIKIPEDIA_ACCESSION>
Tiaprofenic_acid

> <PUBMED_CITATION>
11169173; 19753743; 19821426; 21116781; 2248025; 23231046; 9799928

$$$$
ChEBI
  Marvin  01040611432D          

 15 16  0  0  0  0            999 V2000
    9.0383  -10.6115    0.0000 C   0  0  0  0  0  0  0  0  0  0  0  0
    9.7528  -10.1990    0.0000 C   0  0  0  0  0  0  0  0  0  0  0  0
    9.7528   -9.3739    0.0000 C   0  0  0  0  0  0  0  0  0  0  0  0
   10.4673  -10.6115    0.0000 C   0  0  0  0  0  0  0  0  0  0  0  0
   10.4673   -8.9614    0.0000 C   0  0  0  0  0  0  0  0  0  0  0  0
   11.1818  -10.1990    0.0000 C   0  0  0  0  0  0  0  0  0  0  0  0
   11.1818   -9.3739    0.0000 C   0  0  0  0  0  0  0  0  0  0  0  0
    8.3238  -10.1990    0.0000 C   0  0  0  0  0  0  0  0  0  0  0  0
    7.6094  -10.6115    0.0000 C   0  0  0  0  0  0  0  0  0  0  0  0
    8.3238   -9.3739    0.0000 C   0  0  0  0  0  0  0  0  0  0  0  0
    6.8948  -10.1989    0.0000 C   0  0  0  0  0  0  0  0  0  0  0  0
    7.6093   -8.9614    0.0000 C   0  0  0  0  0  0  0  0  0  0  0  0
    6.8948   -9.3739    0.0000 C   0  0  0  0  0  0  0  0  0  0  0  0
    6.1804   -8.9614    0.0000 N   0  0  0  0  0  0  0  0  0  0  0  0
   11.8962   -8.9614    0.0000 N   0  0  0  0  0  0  0  0  0  0  0  0
  3  2  2  0  0  0  0
  4  2  1  0  0  0  0
  5  3  1  0  0  0  0
  6  4  2  0  0  0  0
  7  5  2  0  0  0  0
  7  6  1  0  0  0  0
  1  2  1  0  0  0  0
  9  8  2  0  0  0  0
 10  8  1  0  0  0  0
 11  9  1  0  0  0  0
 12 10  2  0  0  0  0
 13 11  2  0  0  0  0
 13 12  1  0  0  0  0
  1  8  1  0  0  0  0
 14 13  1  0  0  0  0
 15  7  1  0  0  0  0
M  END
> <ID>
CHEBI:32506

> <NAME>
4,4'-diaminodiphenylmethane

> <DEFINITION>
An aromatic amine that is diphenylmethane substituted at the 4-position of each benzene ring by an amino group.

> <STAR>
3

> <SECONDARY_ID>
CHEBI:234513

> <SYNONYM>
p,p'-Methylenedianiline; p,p'-Diaminodiphenylmethane; Dianilinomethane; di-(p-aminophenyl)methane; di-(4-aminophenyl)methane; DDM; DAPM; DADPM; bis-p-aminophenylmethane; Bis(p-aminophenyl)methane; Bis(4-aminophenyl)methane; alpha-(p-aminophenyl)-p-toluidine; 4-(4-aminobenzyl)aniline; 4,4'-methylenedianiline; 4,4'-Methylenebis(benzeneamine); 4,4'-Diphenylmethanediamine; 4,4'-Diaminodiphenylmethane; 4,4'-Diaminodiphenylmethane

> <IUPAC_NAME>
4,4'-methylenedianiline

> <FORMULA>
C13H14N2

> <MASS>
198.26374

> <MONOISOTOPIC_MASS>
198.11570

> <CHARGE>
0

> <SMILES>
Nc1ccc(Cc2ccc(N)cc2)cc1

> <INCHI>
InChI=1S/C13H14N2/c14-12-5-1-10(2-6-12)9-11-3-7-13(15)8-4-11/h1-8H,9,14-15H2

> <INCHIKEY>
YBRVSVVVWCFQMG-UHFFFAOYSA-N

> <BEILSTEIN_REGISTRY_NUMBER>
474706

> <CAS_REGISTRY_NUMBER>
101-77-9

> <REAXYS_REGISTRY_NUMBER>
474706

> <CHEMIDPLUS>
101-77-9

> <HMDB_ACCESSION>
HMDB0041808

> <KEGG_COMPOUND_ACCESSION>
C14288

> <NIST_CHEMISTRY_WEBBOOK>
101-77-9

> <WIKIPEDIA_ACCESSION>
4,4'-Methylenedianiline

> <PUBMED_CITATION>
17061110; 18844695; 22393703; 2607764; 9022650; 17482318; 7265110

$$$$

11280715282D 1   1.00000     0.00000     0

  5  5  0     0  0            999 V2000
    3.2667   -3.1667    0.0000 C   0  0  0  0  0  0           0  0  0
    4.0917   -3.1667    0.0000 N   0  0  0  0  0  0           0  0  0
    3.2750   -2.3417    0.0000 C   0  0  0  0  0  0           0  0  0
    2.6792   -3.7417    0.0000 O   0  0  0  0  0  0           0  0  0
    4.1000   -2.3417    0.0000 C   0  0  0  0  0  0           0  0  0
  2  1  1  0     0  0
  3  1  1  0     0  0
  4  1  2  0     0  0
  5  3  1  0     0  0
  5  2  1  0     0  0
M  END
> <ID>
CHEBI:327119

> <NAME>
azetidin-2-one

> <DEFINITION>
An unsubstituted β-lactam compound.

> <STAR>
3

> <SYNONYM>
Propiolactam; beta-Propiolactam; 2-Azetidinone

> <IUPAC_NAME>
azetidin-2-one

> <FORMULA>
C3H5NO

> <MASS>
71.07790

> <MONOISOTOPIC_MASS>
71.03711

> <CHARGE>
0

> <SMILES>
O=C1CCN1

> <INCHI>
InChI=1S/C3H5NO/c5-3-1-2-4-3/h1-2H2,(H,4,5)

> <INCHIKEY>
MNFORVFSTILPAW-UHFFFAOYSA-N

> <BEILSTEIN_REGISTRY_NUMBER>
104563

> <CAS_REGISTRY_NUMBER>
930-21-2

> <GMELIN_REGISTRY_NUMBER>
719474

> <REAXYS_REGISTRY_NUMBER>
104563

> <CHEMIDPLUS>
930-21-2

> <NIST_CHEMISTRY_WEBBOOK>
930-21-2

> <PUBMED_CITATION>
11063627; 12569987; 22296309; 22799571

$$$$

Marvin  11070516162D          

  9  9  0  0  0  0            999 V2000
    0.3572    0.2063    0.0000 C   0  0  0  0  0  0  0  0  0  0  0  0
    1.0717   -0.2062    0.0000 C   0  0  0  0  0  0  0  0  0  0  0  0
    1.0717   -1.0312    0.0000 O   0  0  0  0  0  0  0  0  0  0  0  0
    1.7862    0.2062    0.0000 N   0  0  0  0  0  0  0  0  0  0  0  0
    1.7862    1.0312    0.0000 C   0  0  0  0  0  0  0  0  0  0  0  0
    2.5006    1.4437    0.0000 S   0  0  0  0  0  0  0  0  0  0  0  0
    1.0717    1.4438    0.0000 N   0  0  0  0  0  0  0  0  0  0  0  0
    0.3572    1.0313    0.0000 C   0  0  0  0  0  0  0  0  0  0  0  0
   -0.3572    1.4438    0.0000 O   0  0  0  0  0  0  0  0  0  0  0  0
  1  2  1  0  0  0  0
  1  8  1  0  0  0  0
  2  3  2  0  0  0  0
  2  4  1  0  0  0  0
  4  5  1  0  0  0  0
  5  6  2  0  0  0  0
  5  7  1  0  0  0  0
  7  8  1  0  0  0  0
  8  9  2  0  0  0  0
M  END
> <ID>
CHEBI:33202

> <NAME>
2-thiobarbituric acid

> <DEFINITION>
A barbiturate, the structure of which is that of barbituric acid in which the oxygen at C-2 is replaced by sulfur.

> <STAR>
3

> <SYNONYM>
thiobarbituric acid; dihydro-2-thioxo-4,6(1H,5H)-pyrimidinedione; 2-thioxodihydropyrimidine-4,6(1H,5H)-dione

> <IUPAC_NAME>
2-sulfanylidenedihydropyrimidine-4,6(1H,5H)-dione

> <FORMULA>
C4H4N2O2S

> <MASS>
144.15284

> <MONOISOTOPIC_MASS>
143.99935

> <CHARGE>
0

> <SMILES>
O=C1CC(=O)NC(=S)N1

> <INCHI>
InChI=1S/C4H4N2O2S/c7-2-1-3(8)6-4(9)5-2/h1H2,(H2,5,6,7,8,9)

> <INCHIKEY>
RVBUGGBMJDPOST-UHFFFAOYSA-N

> <BEILSTEIN_REGISTRY_NUMBER>
120663

> <CAS_REGISTRY_NUMBER>
504-17-6

> <GMELIN_REGISTRY_NUMBER>
101333

> <REAXYS_REGISTRY_NUMBER>
120663

> <CHEMIDPLUS>
504-17-6

> <WIKIPEDIA_ACCESSION>
Thiobarbituric_acid

> <PUBMED_CITATION>
18401456; 22467201; 22506924; 23411186; 23523734; 23792287; 23832025; 23896130; 3654008

$$$$

Mrv0541 11181412302D          

 19 22  0  0  0  0            999 V2000
    5.7800   -1.1994    0.0000 C   0  0  0  0  0  0  0  0  0  0  0  0
    6.5210   -1.5694    0.0000 N   0  0  0  0  0  0  0  0  0  0  0  0
    7.2680   -1.2168    0.0000 C   0  0  0  0  0  0  0  0  0  0  0  0
    7.4559   -0.4071    0.0000 C   0  0  0  0  0  0  0  0  0  0  0  0
    5.6015   -0.3731    0.0000 C   0  0  0  0  0  0  0  0  0  0  0  0
    6.9491    0.3026    0.0000 C   0  0  0  0  0  0  0  0  0  0  0  0
    6.1227    0.2740    0.0000 C   0  0  0  0  0  0  0  0  0  0  0  0
    8.2451   -0.1667    0.0000 C   0  0  0  0  0  0  0  0  0  0  0  0
    8.8477   -0.7300    0.0000 C   0  0  0  0  0  0  0  0  0  0  0  0
    8.6599   -1.5397    0.0000 C   0  0  0  0  0  0  0  0  0  0  0  0
    7.8708   -1.7801    0.0000 C   0  0  0  0  0  0  0  0  0  0  0  0
    5.1688   -1.7535    0.0000 C   0  0  0  0  0  0  0  0  0  0  0  0
    4.3834   -1.5012    0.0000 C   0  0  0  0  0  0  0  0  0  0  0  0
    4.2048   -0.6749    0.0000 C   0  0  0  0  0  0  0  0  0  0  0  0
    4.8160   -0.1209    0.0000 C   0  0  0  0  0  0  0  0  0  0  0  0
    6.5352    0.9884    0.0000 O   0  0  0  0  0  0  0  0  0  0  0  0
    6.5210   -2.3944    0.0000 C   0  0  0  0  0  0  0  0  0  0  0  0
    7.2448   -2.8123    0.0000 O   0  0  0  0  0  0  0  0  0  0  0  0
    5.8122   -2.8037    0.0000 N   0  0  0  0  0  0  0  0  0  0  0  0
  3  4  1  0  0  0  0
  1  5  1  0  0  0  0
  4  6  1  0  0  0  0
  2  3  1  0  0  0  0
  5  7  1  0  0  0  0
  1  2  1  0  0  0  0
  6  7  1  0  0  0  0
  4  8  2  0  0  0  0
  8  9  1  0  0  0  0
  9 10  2  0  0  0  0
 10 11  1  0  0  0  0
  3 11  2  0  0  0  0
  1 12  2  0  0  0  0
 12 13  1  0  0  0  0
 13 14  2  0  0  0  0
 14 15  1  0  0  0  0
  5 15  2  0  0  0  0
  7 16  1  0  0  0  0
  6 16  1  0  0  0  0
  2 17  1  0  0  0  0
 17 18  2  0  0  0  0
 17 19  1  0  0  0  0
M  END
> <ID>
CHEBI:3388

> <NAME>
carbamazepine-10,11-epoxide

> <DEFINITION>
An  epoxide and metabolite of carbamazepine.

> <STAR>
3

> <SYNONYM>
Carbamazepine epoxide; Carbamazepine 10,11-oxide; 10,11-Epoxycarbamazepine

> <IUPAC_NAME>
1a,10b-dihydro-6H-dibenzo[b,f]oxireno[d]azepine-6-carboxamide

> <FORMULA>
C15H12N2O2

> <MASS>
252.26800

> <MONOISOTOPIC_MASS>
252.08988

> <CHARGE>
0

> <SMILES>
NC(=O)N1c2ccccc2C2OC2c2ccccc12

> <INCHI>
InChI=1S/C15H12N2O2/c16-15(18)17-11-7-3-1-5-9(11)13-14(19-13)10-6-2-4-8-12(10)17/h1-8,13-14H,(H2,16,18)

> <INCHIKEY>
ZRWWEEVEIOGMMT-UHFFFAOYSA-N

> <BEILSTEIN_REGISTRY_NUMBER>
1219988

> <CAS_REGISTRY_NUMBER>
36507-30-9

> <REAXYS_REGISTRY_NUMBER>
1219988

> <CHEMIDPLUS>
36507-30-9

> <HMDB_ACCESSION>
HMDB0060658

> <KEGG_COMPOUND_ACCESSION>
C07496

> <PUBMED_CITATION>
22322005; 22443929; 24632353; 7233491

$$$$

Marvin  02110911162D          

 27 29  0  0  0  0            999 V2000
    0.0000    0.8250    0.0000 C   0  0  0  0  0  0  0  0  0  0  0  0
    0.7145    0.4125    0.0000 C   0  0  0  0  0  0  0  0  0  0  0  0
    0.7145   -0.4125    0.0000 C   0  0  0  0  0  0  0  0  0  0  0  0
    0.0000   -0.8250    0.0000 C   0  0  0  0  0  0  0  0  0  0  0  0
   -0.7145   -0.4125    0.0000 C   0  0  0  0  0  0  0  0  0  0  0  0
   -0.7145    0.4125    0.0000 C   0  0  0  0  0  0  0  0  0  0  0  0
    2.1434   -2.0625    0.0000 C   0  0  2  0  0  0  0  0  0  0  0  0
    2.1434   -2.8875    0.0000 C   0  0  0  0  0  0  0  0  0  0  0  0
    2.9684   -2.8875    0.0000 N   0  0  0  0  0  0  0  0  0  0  0  0
    2.9684   -2.0625    0.0000 C   0  0  2  0  0  0  0  0  0  0  0  0
    3.7530   -3.1424    0.0000 C   0  0  2  0  0  0  0  0  0  0  0  0
    4.2380   -2.4750    0.0000 C   0  0  0  0  0  0  0  0  0  0  0  0
    3.7530   -1.8076    0.0000 S   0  0  0  0  0  0  0  0  0  0  0  0
    4.9567   -2.8800    0.0000 C   0  0  0  0  0  0  0  0  0  0  0  0
    4.9567   -2.0700    0.0000 C   0  0  0  0  0  0  0  0  0  0  0  0
    4.0080   -3.9271    0.0000 C   0  0  0  0  0  0  0  0  0  0  0  0
    4.8149   -4.0986    0.0000 O   0  0  0  0  0  0  0  0  0  0  0  0
    3.4559   -4.5402    0.0000 O   0  0  0  0  0  0  0  0  0  0  0  0
    1.4289   -1.6500    0.0000 N   0  0  0  0  0  0  0  0  0  0  0  0
    0.7145   -2.0625    0.0000 C   0  0  0  0  0  0  0  0  0  0  0  0
    0.0000   -1.6500    0.0000 C   0  0  0  0  0  0  0  0  0  0  0  0
   -0.7145   -2.0625    0.0000 C   0  0  0  0  0  0  0  0  0  0  0  0
    0.7145   -2.8875    0.0000 O   0  0  0  0  0  0  0  0  0  0  0  0
   -0.7145   -2.8875    0.0000 O   0  0  0  0  0  0  0  0  0  0  0  0
   -1.4289   -1.6500    0.0000 O   0  0  0  0  0  0  0  0  0  0  0  0
    1.5600   -3.4709    0.0000 O   0  0  0  0  0  0  0  0  0  0  0  0
    2.9684   -1.2375    0.0000 H   0  0  0  0  0  0  0  0  0  0  0  0
  6  1  1  0  0  0  0
  1  2  2  0  0  0  0
  2  3  1  0  0  0  0
  4  3  2  0  0  0  0
 21  4  1  0  0  0  0
  5  6  2  0  0  0  0
  4  5  1  0  0  0  0
  7  8  1  0  0  0  0
  8  9  1  0  0  0  0
 10  9  1  0  0  0  0
 10  7  1  0  0  0  0
  9 11  1  0  0  0  0
 11 12  1  0  0  0  0
 12 13  1  0  0  0  0
 10 13  1  0  0  0  0
 12 14  1  0  0  0  0
 12 15  1  0  0  0  0
 11 16  1  6  0  0  0
 16 17  1  0  0  0  0
 16 18  2  0  0  0  0
  7 19  1  1  0  0  0
 19 20  1  0  0  0  0
 20 21  1  0  0  0  0
 21 22  1  0  0  0  0
 20 23  2  0  0  0  0
 22 24  2  0  0  0  0
 22 25  1  0  0  0  0
  8 26  2  0  0  0  0
 10 27  1  6  0  0  0
M  END
> <ID>
CHEBI:3393

> <NAME>
carbenicillin

> <DEFINITION>
A penicillin antibiotic having a 6β-2-carboxy-2-phenylacetamido side-chain.

> <STAR>
3

> <SYNONYM>
N-(2-carboxy-3,3-dimethyl-7-oxo-4-thia-1-azabicyclo(3.2.0)hept-6-yl)-2-phenylmalonamic acid; CBPC; carboxybenzylpenicillin; alpha-phenyl(carboxymethylpenicillin); alpha-carboxybenzylpencillin; (2S,5R,6R)-6-{[carboxy(phenyl)acetyl]amino}-3,3-dimethyl-7-oxo-4-thia-1-azabicyclo[3.2.0]heptane-2-carboxylic acid

> <IUPAC_NAME>
6beta-(2-carboxy-2-phenylacetamido)-2,2-dimethylpenam-3alpha-carboxylic acid

> <INN>
carbenicillinum; carbenicilline; carbenicillin; carbenicilina

> <FORMULA>
C17H18N2O6S

> <MASS>
378.40070

> <MONOISOTOPIC_MASS>
378.08856

> <CHARGE>
0

> <SMILES>
[H][C@]12SC(C)(C)[C@@H](N1C(=O)[C@H]2NC(=O)C(C(O)=O)c1ccccc1)C(O)=O

> <INCHI>
InChI=1S/C17H18N2O6S/c1-17(2)11(16(24)25)19-13(21)10(14(19)26-17)18-12(20)9(15(22)23)8-6-4-3-5-7-8/h3-7,9-11,14H,1-2H3,(H,18,20)(H,22,23)(H,24,25)/t9?,10-,11+,14-/m1/s1

> <INCHIKEY>
FPPNZSSZRUTDAP-UWFZAAFLSA-N

> <BEILSTEIN_REGISTRY_NUMBER>
1230663

> <CAS_REGISTRY_NUMBER>
4697-36-3

> <REAXYS_REGISTRY_NUMBER>
1230663

> <CHEMIDPLUS>
4697-36-3

> <DRUGBANK_ACCESSION>
DB00578

> <HMDB_ACCESSION>
HMDB0014717

> <KEGG_COMPOUND_ACCESSION>
C06869

> <KEGG_DRUG_ACCESSION>
D07614

> <WIKIPEDIA_ACCESSION>
Carbenicillin

> <PUBMED_CITATION>
12569987; 22648337; 6176550

$$$$

Marvin  02110913202D          

 33 36  0  0  0  0            999 V2000
    0.0000    0.8250    0.0000 C   0  0  0  0  0  0  0  0  0  0  0  0
    0.7145    0.4125    0.0000 C   0  0  0  0  0  0  0  0  0  0  0  0
    0.7145   -0.4125    0.0000 C   0  0  0  0  0  0  0  0  0  0  0  0
    0.0000   -0.8250    0.0000 C   0  0  0  0  0  0  0  0  0  0  0  0
   -0.7145   -0.4125    0.0000 C   0  0  0  0  0  0  0  0  0  0  0  0
   -0.7145    0.4125    0.0000 C   0  0  0  0  0  0  0  0  0  0  0  0
    2.1434   -2.0625    0.0000 C   0  0  2  0  0  0  0  0  0  0  0  0
    2.1434   -2.8875    0.0000 C   0  0  0  0  0  0  0  0  0  0  0  0
    2.9684   -2.8875    0.0000 N   0  0  0  0  0  0  0  0  0  0  0  0
    2.9684   -2.0625    0.0000 C   0  0  2  0  0  0  0  0  0  0  0  0
    3.7530   -3.1424    0.0000 C   0  0  2  0  0  0  0  0  0  0  0  0
    4.2380   -2.4750    0.0000 C   0  0  0  0  0  0  0  0  0  0  0  0
    3.7530   -1.8076    0.0000 S   0  0  0  0  0  0  0  0  0  0  0  0
    4.9567   -2.8800    0.0000 C   0  0  0  0  0  0  0  0  0  0  0  0
    4.9567   -2.0700    0.0000 C   0  0  0  0  0  0  0  0  0  0  0  0
    4.0080   -3.9271    0.0000 C   0  0  0  0  0  0  0  0  0  0  0  0
    4.8149   -4.0986    0.0000 O   0  0  0  0  0  0  0  0  0  0  0  0
    3.4559   -4.5402    0.0000 O   0  0  0  0  0  0  0  0  0  0  0  0
    1.4289   -1.6500    0.0000 N   0  0  0  0  0  0  0  0  0  0  0  0
    0.7145   -2.0625    0.0000 C   0  0  0  0  0  0  0  0  0  0  0  0
    0.0000   -1.6500    0.0000 C   0  0  0  0  0  0  0  0  0  0  0  0
   -0.7145   -2.0625    0.0000 C   0  0  0  0  0  0  0  0  0  0  0  0
    0.7145   -2.8875    0.0000 O   0  0  0  0  0  0  0  0  0  0  0  0
   -0.7145   -2.8875    0.0000 O   0  0  0  0  0  0  0  0  0  0  0  0
   -1.4289   -1.6500    0.0000 O   0  0  0  0  0  0  0  0  0  0  0  0
    1.5600   -3.4709    0.0000 O   0  0  0  0  0  0  0  0  0  0  0  0
    2.9684   -1.2375    0.0000 H   0  0  0  0  0  0  0  0  0  0  0  0
   -2.1434   -2.0625    0.0000 C   0  0  0  0  0  0  0  0  0  0  0  0
   -2.8578   -1.6500    0.0000 C   0  0  0  0  0  0  0  0  0  0  0  0
   -3.5723   -2.0625    0.0000 C   0  0  0  0  0  0  0  0  0  0  0  0
   -3.5723   -2.8875    0.0000 C   0  0  0  0  0  0  0  0  0  0  0  0
   -2.8578   -3.3000    0.0000 C   0  0  0  0  0  0  0  0  0  0  0  0
   -2.1434   -2.8875    0.0000 C   0  0  0  0  0  0  0  0  0  0  0  0
  6  1  1  0  0  0  0
  1  2  2  0  0  0  0
  2  3  1  0  0  0  0
  4  3  2  0  0  0  0
 21  4  1  0  0  0  0
  5  6  2  0  0  0  0
  4  5  1  0  0  0  0
  7  8  1  0  0  0  0
  8  9  1  0  0  0  0
 10  9  1  0  0  0  0
 10  7  1  0  0  0  0
  9 11  1  0  0  0  0
 11 12  1  0  0  0  0
 12 13  1  0  0  0  0
 10 13  1  0  0  0  0
 12 14  1  0  0  0  0
 12 15  1  0  0  0  0
 11 16  1  6  0  0  0
 16 17  1  0  0  0  0
 16 18  2  0  0  0  0
  7 19  1  1  0  0  0
 19 20  1  0  0  0  0
 20 21  1  0  0  0  0
 21 22  1  0  0  0  0
 20 23  2  0  0  0  0
 22 24  2  0  0  0  0
 22 25  1  0  0  0  0
  8 26  2  0  0  0  0
 10 27  1  6  0  0  0
 25 28  1  0  0  0  0
 33 28  1  0  0  0  0
 29 28  2  0  0  0  0
 29 30  1  0  0  0  0
 30 31  2  0  0  0  0
 31 32  1  0  0  0  0
 32 33  2  0  0  0  0
M  END
> <ID>
CHEBI:3414

> <NAME>
carfecillin

> <STAR>
3

> <SYNONYM>
Carfecillin; carbenicillin phenyl ester; Carbenicillin phenyl; 6-(2-Phenoxycarbonyl-2-phenylacetamido)penicillansaeure; (2S,5R,6R)-3,3-dimethyl-7-oxo-6-[(3-oxo-3-phenoxy-2-phenylpropanoyl)amino]-4-thia-1-azabicyclo[3.2.0]heptane-2-carboxylic acid

> <IUPAC_NAME>
2,2-dimethyl-6beta-[(3-oxo-3-phenoxy-2-phenylpropanoyl)amino]penam-3alpha-carboxylic acid

> <INN>
carfecillinum; carfecilline; carfecilina

> <FORMULA>
C23H22N2O6S

> <MASS>
454.49666

> <MONOISOTOPIC_MASS>
454.11986

> <CHARGE>
0

> <SMILES>
[H][C@]12SC(C)(C)[C@@H](N1C(=O)[C@H]2NC(=O)C(C(=O)Oc1ccccc1)c1ccccc1)C(O)=O

> <INCHI>
InChI=1S/C23H22N2O6S/c1-23(2)17(21(28)29)25-19(27)16(20(25)32-23)24-18(26)15(13-9-5-3-6-10-13)22(30)31-14-11-7-4-8-12-14/h3-12,15-17,20H,1-2H3,(H,24,26)(H,28,29)/t15?,16-,17+,20-/m1/s1

> <INCHIKEY>
NZDASSHFKWDBBU-KVMCETHSSA-N

> <BEILSTEIN_REGISTRY_NUMBER>
5405930

> <CAS_REGISTRY_NUMBER>
27025-49-6

> <CHEMIDPLUS>
27025-49-6

> <KEGG_COMPOUND_ACCESSION>
C11752

$$$$

Marvin  10200914422D          

  9  8  0  0  0  0            999 V2000
    8.8887   -5.4772    0.0000 O   0  0  0  0  0  0  0  0  0  0  0  0
    9.6032   -5.8897    0.0000 C   0  0  0  0  0  0  0  0  0  0  0  0
   10.3176   -5.4772    0.0000 C   0  0  0  0  0  0  0  0  0  0  0  0
   11.0321   -5.8897    0.0000 O   0  0  0  0  0  0  0  0  0  0  0  0
   11.7466   -5.4772    0.0000 C   0  0  0  0  0  0  0  0  0  0  0  0
   12.4610   -5.8897    0.0000 C   0  0  0  0  0  0  0  0  0  0  0  0
   11.7466   -4.6522    0.0000 O   0  0  0  0  0  0  0  0  0  0  0  0
   13.1754   -5.4772    0.0000 C   0  0  0  0  0  0  0  0  0  0  0  0
   12.4610   -6.7147    0.0000 C   0  0  0  0  0  0  0  0  0  0  0  0
  1  2  1  0  0  0  0
  2  3  1  0  0  0  0
  3  4  1  0  0  0  0
  4  5  1  0  0  0  0
  5  6  1  0  0  0  0
  5  7  2  0  0  0  0
  6  8  1  0  0  0  0
  6  9  2  0  0  0  0
M  END
> <ID>
CHEBI:34288

> <NAME>
2-hydroxyethyl methacrylate

> <DEFINITION>
An enoate ester that is the monomethacryloyl derivative of ethylene glycol.

> <STAR>
3

> <SECONDARY_ID>
CHEBI:53441

> <SYNONYM>
Hydroxyethyl methacrylate; HEMA; Glycol monomethacrylate; Glycol methacrylate; Ethylene glycol monomethacrylate; Ethylene glycol methacrylate; beta-Hydroxyethyl methacrylate; 2-Hydroxyethylmethacrylate; 2-Hydroxyethyl methacrylate; 2-Hydroxyethyl 2-methylacrylate; 2-(Methacryloyloxy)ethanol; 1,2-Ethanediol mono(2-methyl)-2-propenoate; (hydroxyethyl)methacrylate

> <IUPAC_NAME>
2-hydroxyethyl methacrylate

> <FORMULA>
C6H10O3

> <MASS>
130.14180

> <MONOISOTOPIC_MASS>
130.06299

> <CHARGE>
0

> <SMILES>
CC(=C)C(=O)OCCO

> <INCHI>
InChI=1S/C6H10O3/c1-5(2)6(8)9-4-3-7/h7H,1,3-4H2,2H3

> <INCHIKEY>
WOBHKFSMXKNTIM-UHFFFAOYSA-N

> <BEILSTEIN_REGISTRY_NUMBER>
1071583

> <CAS_REGISTRY_NUMBER>
868-77-9

> <GMELIN_REGISTRY_NUMBER>
936557

> <REAXYS_REGISTRY_NUMBER>
1071583

> <CHEMIDPLUS>
868-77-9

> <KEGG_COMPOUND_ACCESSION>
C14530

> <NIST_CHEMISTRY_WEBBOOK>
868-77-9

> <WIKIPEDIA_ACCESSION>
(Hydroxyethyl)methacrylate

> <PUBMED_CITATION>
10444249; 11714252; 15186380; 22886489; 22889382; 23137186; 23157270; 23182953; 23275084; 23305206; 23360228; 23370864; 23399173; 23466546; 23516576; 23587005; 23611114; 23670604; 23673616

$$$$

Ketcher 09252018212D 1   1.00000     0.00000     0

 15 16  0     0  0            999 V2000
   10.1673  -10.4277    0.0000 C   0  0  0  0  0  0  0  0  0  0  0  0
   10.1673  -11.4277    0.0000 C   0  0  0  0  0  0  0  0  0  0  0  0
    9.3011   -9.9277    0.0000 C   0  0  0  0  0  0  0  0  0  0  0  0
    9.3011  -11.9277    0.0000 C   0  0  0  0  0  0  0  0  0  0  0  0
    8.4352  -10.4277    0.0000 C   0  0  0  0  0  0  0  0  0  0  0  0
    8.4352  -11.4277    0.0000 C   0  0  0  0  0  0  0  0  0  0  0  0
    9.3011   -8.9277    0.0000 C   0  0  0  0  0  0  0  0  0  0  0  0
   10.1671   -8.4276    0.0000 O   0  0  0  0  0  0  0  0  0  0  0  0
   10.1671   -7.4276    0.0000 C   0  0  0  0  0  0  0  0  0  0  0  0
    9.3011   -6.9276    0.0000 C   0  0  0  0  0  0  0  0  0  0  0  0
   11.0331   -6.9276    0.0000 C   0  0  0  0  0  0  0  0  0  0  0  0
    9.3011   -5.9277    0.0000 C   0  0  0  0  0  0  0  0  0  0  0  0
   11.0331   -5.9277    0.0000 C   0  0  0  0  0  0  0  0  0  0  0  0
   10.1671   -5.4277    0.0000 C   0  0  0  0  0  0  0  0  0  0  0  0
   10.1671   -4.4277    0.0000 O   0  0  0  0  0  0  0  0  0  0  0  0
  1  2  1  0     0  0
  1  3  2  0     0  0
  2  4  2  0     0  0
  3  5  1  0     0  0
  4  6  1  0     0  0
  5  6  2  0     0  0
  3  7  1  0     0  0
  7  8  1  0     0  0
  9 10  1  0     0  0
  9 11  2  0     0  0
 10 12  2  0     0  0
 11 13  1  0     0  0
 12 14  1  0     0  0
 13 14  2  0     0  0
  8  9  1  0     0  0
 14 15  1  0     0  0
M  END
> <ID>
CHEBI:34380

> <NAME>
monobenzone

> <DEFINITION>
The monobenzyl ether of hydroquinone.  It is used as a topical drug for medical depigmentation.

> <STAR>
3

> <SECONDARY_ID>
CHEBI:428158

> <SYNONYM>
p-Hydroxyphenyl benzyl ether; p-(Benzyloxy)phenol; Monobenzyl hydroquinone; MONOBENZYL ETHER OF HYDROQUINONE; Hydroquinone monobenzyl ether; Hydroquinone benzyl ether; Benzyl p-hydroxyphenyl ether; 4-Benzyloxyphenol; 4-Benzyloxy-phenol; 4-(Phenylmethoxy)phenol; 4-(Benzyloxyl)phenol

> <IUPAC_NAME>
4-(benzyloxy)phenol

> <INN>
monobenzonum; monobenzonum; monobenzone; monobenzone; monobenzone; monobenzone; monobenzona; monobenzona

> <FORMULA>
C13H12O2

> <MASS>
200.23320

> <MONOISOTOPIC_MASS>
200.08373

> <CHARGE>
0

> <SMILES>
OC1=CC=C(OCC2=CC=CC=C2)C=C1

> <INCHI>
InChI=1S/C13H12O2/c14-12-6-8-13(9-7-12)15-10-11-4-2-1-3-5-11/h1-9,14H,10H2

> <INCHIKEY>
VYQNWZOUAUKGHI-UHFFFAOYSA-N

> <CAS_REGISTRY_NUMBER>
103-16-2

> <REAXYS_REGISTRY_NUMBER>
1958305

> <CHEMIDPLUS>
103-16-2

> <DRUGBANK_ACCESSION>
DB00600

> <KEGG_COMPOUND_ACCESSION>
C14244

> <KEGG_DRUG_ACCESSION>
D05072

> <LINCS_ACCESSION>
LSM-5642

> <WIKIPEDIA_ACCESSION>
Monobenzone

> <PUBMED_CITATION>
14843106; 20498710; 21326294; 21566576; 21689385; 32785935

$$$$

Ketcher 10122011002D 1   1.00000     0.00000     0

  6  5  0     0  0            999 V2000
   18.6218   -4.8003    0.0000 C   0  0  0  0  0  0  0  0  0  0  0  0
   19.4927   -5.2979    0.0000 C   0  0  0  0  0  0  0  0  0  0  0  0
   18.6342   -3.8050    0.0000 O   0  0  0  0  0  0  0  0  0  0  0  0
   19.4803   -6.2933    0.0000 O   0  0  0  0  0  0  0  0  0  0  0  0
   20.3614   -4.7964    0.0000 H   0  0  0  0  0  0  0  0  0  0  0  0
   17.7531   -5.3018    0.0000 H   0  0  0  0  0  0  0  0  0  0  0  0
  2  1  1  0     0  0
  3  1  2  0     0  0
  4  2  2  0     0  0
  2  5  1  0     0  0
  1  6  1  0     0  0
M  END
> <ID>
CHEBI:34779

> <NAME>
glyoxal

> <DEFINITION>
The dialdehyde that is the smallest possible and which consists of ethane having oxo groups on both carbons.

> <STAR>
3

> <SYNONYM>
Oxalaldehyde; oxal; glyoxylaldehyde; glyoxal aldehyde; glyoxal; Ethanedial; ethane-1,2-dial; Diformyl; Diformal; Biformyl; Biformal; 1,2-Ethanedione

> <IUPAC_NAME>
ethanedial

> <FORMULA>
C2H2O2

> <MASS>
58.036

> <MONOISOTOPIC_MASS>
58.00548

> <CHARGE>
0

> <SMILES>
[H]C(=O)C([H])=O

> <INCHI>
InChI=1S/C2H2O2/c3-1-2-4/h1-2H

> <INCHIKEY>
LEQAOMBKQFMDFZ-UHFFFAOYSA-N

> <BEILSTEIN_REGISTRY_NUMBER>
1732463

> <CAS_REGISTRY_NUMBER>
107-22-2

> <REAXYS_REGISTRY_NUMBER>
1732463

> <CHEMIDPLUS>
107-22-2

> <KEGG_COMPOUND_ACCESSION>
C14448

> <METACYC_ACCESSION>
CPD-8887

> <NIST_CHEMISTRY_WEBBOOK>
107-22-2

> <PDBECHEM_ACCESSION>
GXT

> <WIKIPEDIA_ACCESSION>
Glyoxal

> <PUBMED_CITATION>
11833298; 15899002; 18343213; 18533367; 23180757; 23531876; 23543734; 23990306; 9506998

$$$$

Marvin  01261109542D          

 25 27  0  0  1  0            999 V2000
   15.1257   -5.2681    0.0000 C   0  0  2  0  0  0  0  0  0  0  0  0
   15.1257   -6.0931    0.0000 N   0  0  0  0  0  0  0  0  0  0  0  0
   15.8401   -6.5056    0.0000 C   0  0  0  0  0  0  0  0  0  0  0  0
   16.5546   -6.0931    0.0000 C   0  0  0  0  0  0  0  0  0  0  0  0
   16.5546   -5.2681    0.0000 C   0  0  0  0  0  0  0  0  0  0  0  0
   15.8401   -4.8556    0.0000 S   0  0  0  0  0  0  0  0  0  0  0  0
   14.3007   -5.2681    0.0000 C   0  0  1  0  0  0  0  0  0  0  0  0
   14.3007   -6.0931    0.0000 C   0  0  0  0  0  0  0  0  0  0  0  0
   13.5861   -4.8556    0.0000 N   0  0  0  0  0  0  0  0  0  0  0  0
   12.8716   -5.2681    0.0000 C   0  0  0  0  0  0  0  0  0  0  0  0
   12.8716   -6.0931    0.0000 O   0  0  0  0  0  0  0  0  0  0  0  0
   13.5861   -6.5056    0.0000 O   0  0  0  0  0  0  0  0  0  0  0  0
   12.1570   -4.8556    0.0000 C   0  0  1  0  0  0  0  0  0  0  0  0
   17.2802   -6.5122    0.0000 Cl  0  0  0  0  0  0  0  0  0  0  0  0
   15.8401   -7.3305    0.0000 C   0  0  0  0  0  0  0  0  0  0  0  0
   15.1157   -7.7488    0.0000 O   0  0  0  0  0  0  0  0  0  0  0  0
   16.5447   -7.7373    0.0000 O   0  0  0  0  0  0  0  0  0  0  0  0
   11.4312   -5.2750    0.0000 C   0  0  0  0  0  0  0  0  0  0  0  0
   10.7176   -4.8630    0.0000 C   0  0  0  0  0  0  0  0  0  0  0  0
   10.0040   -5.2750    0.0000 C   0  0  0  0  0  0  0  0  0  0  0  0
   10.0040   -6.0990    0.0000 C   0  0  0  0  0  0  0  0  0  0  0  0
   10.7176   -6.5110    0.0000 C   0  0  0  0  0  0  0  0  0  0  0  0
   11.4312   -6.0990    0.0000 C   0  0  0  0  0  0  0  0  0  0  0  0
   12.1570   -4.0279    0.0000 N   0  0  0  0  0  0  0  0  0  0  0  0
   15.1257   -4.4422    0.0000 H   0  0  0  0  0  0  0  0  0  0  0  0
  1  2  1  0  0  0  0
  2  3  1  0  0  0  0
  3  4  2  0  0  0  0
  4  5  1  0  0  0  0
  5  6  1  0  0  0  0
  1  6  1  0  0  0  0
  1  7  1  0  0  0  0
  7  8  1  0  0  0  0
  2  8  1  0  0  0  0
  7  9  1  1  0  0  0
  9 10  1  0  0  0  0
 10 11  2  0  0  0  0
  8 12  2  0  0  0  0
 10 13  1  0  0  0  0
  4 14  1  0  0  0  0
  3 15  1  0  0  0  0
 15 16  2  0  0  0  0
 15 17  1  0  0  0  0
 13 18  1  0  0  0  0
 18 19  2  0  0  0  0
 19 20  1  0  0  0  0
 20 21  2  0  0  0  0
 21 22  1  0  0  0  0
 22 23  2  0  0  0  0
 18 23  1  0  0  0  0
 13 24  1  1  0  0  0
  1 25  1  6  0  0  0
M  END
> <ID>
CHEBI:3478

> <NAME>
cefaclor

> <DEFINITION>
A cephalosporin bearing chloro and (R)-2-amino-2-phenylacetamido groups at positions 3 and 7, respectively, of the cephem skeleton.

> <STAR>
3

> <SECONDARY_ID>
CHEBI:472656

> <SYNONYM>
Cephaclor; Cefaclor anhydrous; Cefaclor; cefaclor; CCL; 3-Chloro-7-D-(2-phenylglycinamido)-3-cephem-4-carboxylic acid

> <IUPAC_NAME>
7beta-{[(2R)-2-amino-2-phenylacetyl]amino}-3-chloro-3,4-didehydrocepham-4-carboxylic acid; (6R,7R)-7-{[(2R)-2-amino-2-phenylacetyl]amino}-3-chloro-8-oxo-5-thia-1-azabicyclo[4.2.0]oct-2-ene-2-carboxylic acid

> <INN>
cefaclorum

> <FORMULA>
C15H14ClN3O4S

> <MASS>
367.80700

> <MONOISOTOPIC_MASS>
367.03935

> <CHARGE>
0

> <SMILES>
[H][C@]12SCC(Cl)=C(N1C(=O)[C@H]2NC(=O)[C@H](N)c1ccccc1)C(O)=O

> <INCHI>
InChI=1S/C15H14ClN3O4S/c16-8-6-24-14-10(13(21)19(14)11(8)15(22)23)18-12(20)9(17)7-4-2-1-3-5-7/h1-5,9-10,14H,6,17H2,(H,18,20)(H,22,23)/t9-,10-,14-/m1/s1

> <INCHIKEY>
QYIYFLOTGYLRGG-GPCCPHFNSA-N

> <BEILSTEIN_REGISTRY_NUMBER>
3632473

> <CAS_REGISTRY_NUMBER>
53994-73-3

> <REAXYS_REGISTRY_NUMBER>
3632473

> <CHEMIDPLUS>
53994-73-3

> <DRUGBANK_ACCESSION>
DB00833

> <HMDB_ACCESSION>
HMDB0014971

> <KEGG_COMPOUND_ACCESSION>
C06877

> <KEGG_DRUG_ACCESSION>
D00256

> <LINCS_ACCESSION>
LSM-5368

> <WIKIPEDIA_ACCESSION>
Cefaclor

> <PUBMED_CITATION>
10230635; 10930630; 11963587; 12485718; 12569987; 15812119; 18969055; 29017833

$$$$

Ketcher 03071810292D 1   1.00000     0.00000     0

 38 42  0     1  0            999 V2000
   12.9910  -15.4039    0.0000 C   0  0  0  0  0  0  0  0  0  0  0  0
   12.9910  -16.4011    0.0000 N   0  0  0  0  0  0  0  0  0  0  0  0
   13.8386  -16.8997    0.0000 C   0  0  0  0  0  0  0  0  0  0  0  0
   14.6862  -16.4011    0.0000 C   0  0  0  0  0  0  0  0  0  0  0  0
   14.6862  -15.4039    0.0000 C   0  0  0  0  0  0  0  0  0  0  0  0
   13.8386  -14.9053    0.0000 S   0  0  0  0  0  0  0  0  0  0  0  0
   11.9938  -15.4039    0.0000 C   0  0  0  0  0  0  0  0  0  0  0  0
   11.9938  -16.4011    0.0000 C   0  0  0  0  0  0  0  0  0  0  0  0
   11.0964  -14.9053    0.0000 N   0  0  0  0  0  0  0  0  0  0  0  0
   10.2488  -15.4039    0.0000 C   0  0  0  0  0  0  0  0  0  0  0  0
   10.2488  -16.4011    0.0000 O   0  0  0  0  0  0  0  0  0  0  0  0
   11.0964  -16.8997    0.0000 O   0  0  0  0  0  0  0  0  0  0  0  0
    9.4011  -14.9053    0.0000 C   0  0  0  0  0  0  0  0  0  0  0  0
   15.5837  -16.8997    0.0000 C   0  0  0  0  0  0  0  0  0  0  0  0
    8.5037  -15.4039    0.0000 C   0  0  0  0  0  0  0  0  0  0  0  0
   12.9910  -14.4067    0.0000 H   0  0  0  0  0  0  0  0  0  0  0  0
   16.4313  -16.4011    0.0000 N   0  0  0  0  0  0  0  0  0  0  0  0
    7.7558  -14.8055    0.0000 N   0  0  0  0  0  0  0  0  0  0  0  0
    6.9082  -15.3540    0.0000 S   0  0  0  0  0  0  0  0  0  0  0  0
    7.2074  -16.3511    0.0000 C   0  0  0  0  0  0  0  0  0  0  0  0
    8.2044  -16.3511    0.0000 N   0  0  0  0  0  0  0  0  0  0  0  0
    9.4011  -13.9080    0.0000 N   0  0  0  0  0  0  0  0  0  0  0  0
   13.8386  -17.8968    0.0000 C   0  0  0  0  0  0  0  0  0  0  0  0
   14.6862  -18.3955    0.0000 O   0  0  0  0  0  0  0  0  0  0  0  0
   12.9411  -18.3955    0.0000 O   0  0  0  0  0  0  0  0  0  0  0  0
    6.6091  -17.1489    0.0000 N   0  0  0  0  0  0  0  0  0  0  0  0
   10.2922  -13.3984    0.0000 O   0  0  0  0  0  0  0  0  0  0  0  0
   10.2922  -12.3979    0.0000 C   0  0  0  0  0  0  0  0  0  0  0  0
   18.1585  -15.4039    0.0000 C   0  0  0  0  0  0  0  0  0  0  0  0
   18.1585  -16.4011    0.0000 C   0  0  0  0  0  0  0  0  0  0  0  0
   17.2949  -14.9053    0.0000 C   0  0  0  0  0  0  0  0  0  0  0  0
   17.2949  -16.8997    0.0000 C   0  0  0  0  0  0  0  0  0  0  0  0
   16.4313  -15.4039    0.0000 C   0  0  0  0  0  0  0  0  0  0  0  0
   19.0221  -14.9053    0.0000 C   0  0  0  0  0  0  0  0  0  0  0  0
   19.0222  -13.9081    0.0000 O   0  0  0  0  0  0  0  0  0  0  0  0
   19.8858  -15.4040    0.0000 N   0  0  0  0  0  0  0  0  0  0  0  0
   17.4286  -16.4011    0.0000 C   0  0  0  0  0  0  0  0  0  0  0  0
   17.1613  -15.4039    0.0000 C   0  0  0  0  0  0  0  0  0  0  0  0
  1  2  1  0     0  0
  2  3  1  0     0  0
  3  4  2  0     0  0
  4  5  1  0     0  0
  5  6  1  0     0  0
  1  6  1  0     0  0
  1  7  1  0     0  0
  7  8  1  0     0  0
  2  8  1  0     0  0
  7  9  1  1     0  0
  9 10  1  0     0  0
 10 11  2  0     0  0
  8 12  2  0     0  0
 10 13  1  0     0  0
  4 14  1  0     0  0
 13 15  1  0     0  0
  1 16  1  6     0  0
 14 17  1  0     0  0
 15 18  2  0     0  0
 18 19  1  0     0  0
 19 20  1  0     0  0
 20 21  2  0     0  0
 15 21  1  0     0  0
 13 22  2  0     0  0
  3 23  1  0     0  0
 23 24  1  0     0  0
 23 25  2  0     0  0
 20 26  1  0     0  0
 22 27  1  0     0  0
 27 28  1  0     0  0
 30 29  1  0     0  0
 31 29  1  0     0  0
 32 30  1  0     0  0
 33 31  1  0     0  0
 17 32  1  0     0  0
 17 33  1  0     0  0
 35 34  2  0     0  0
 36 34  1  0     0  0
 29 34  1  0     0  0
 17 37  1  0     0  0
 38 29  1  0     0  0
 38 37  1  0     0  0
M  CHG  2  17   1  24  -1
M  END
> <ID>
CHEBI:3484

> <NAME>
cefclidin

> <DEFINITION>
A fourth-generation cephalosporin antibiotic having (4-carbamoyl-1-azoniabicyclo[2.2.2]octan-1-yl)methyl and [(2Z)-2-(2-amino-1,3-thiazol-4-yl)-2-(methoxyimino)acetyl]amino side groups located at positions 3 and 7 respectively.

> <STAR>
3

> <SYNONYM>
cefclidine; Cefclidin; cefaclidine; (6R,7R)-7-{[(2Z)-2-(5-amino-1,2,4-thiadiazol-3-yl)-2-(methoxyimino)acetyl]amino}-3-[(4-carbamoyl-1-azoniabicyclo[2.2.2]octan-1-yl)methyl]-8-oxo-5-thia-1-azabicyclo[4.2.0]oct-2-ene-2-carboxylate

> <IUPAC_NAME>
7-{[(2Z)-2-(2-amino-1,3-thiazol-4-yl)-2-(methoxyimino)acetyl]amino}-3-[(4-carbamoyl-1-azoniabicyclo[2.2.2]octan-1-yl)methyl]-3,4-didehydrocepham-4-carboxylate

> <INN>
cefclidinum; cefclidine; cefclidina; cefclidin

> <FORMULA>
C21H26N8O6S2

> <MASS>
550.614

> <MONOISOTOPIC_MASS>
550.14167

> <CHARGE>
0

> <SMILES>
[C@]12(N(C(=C(CS1)C[N+]34CCC(CC3)(C(=O)N)CC4)C([O-])=O)C([C@H]2NC(=O)/C(/C5=NSC(=N5)N)=N\OC)=O)[H]

> <INCHI>
InChI=1S/C21H26N8O6S2/c1-35-26-11(14-25-20(23)37-27-14)15(30)24-12-16(31)28-13(18(32)33)10(9-36-17(12)28)8-29-5-2-21(3-6-29,4-7-29)19(22)34/h12,17H,2-9H2,1H3,(H5-,22,23,24,25,27,30,32,33,34)/b26-11-/t12-,17-,21?,29?/m1/s1

> <INCHIKEY>
JUVHVMCKLDZLGN-TVNFHGJBSA-N

> <CAS_REGISTRY_NUMBER>
105239-91-6

> <REAXYS_REGISTRY_NUMBER>
6472271

> <CHEMIDPLUS>
105239-91-6

> <KEGG_COMPOUND_ACCESSION>
C11202

> <WIKIPEDIA_ACCESSION>
Cefclidin

> <PUBMED_CITATION>
1399855; 1429239; 1490920; 29017833; 8455329

$$$$

Ketcher 01062012112D 1   1.00000     0.00000     0

  7  6  0     0  0            999 V2000
   15.9706   -6.6392    0.0000 C   0  0  0  0  0  0  0  0  0  0  0  0
   15.1046   -7.1392    0.0000 O   0  0  0  0  0  0  0  0  0  0  0  0
   14.2385   -6.6392    0.0000 C   0  0  0  0  0  0  0  0  0  0  0  0
   13.3725   -7.1392    0.0000 C   0  0  0  0  0  0  0  0  0  0  0  0
   14.2385   -5.6392    0.0000 O   0  0  0  0  0  0  0  0  0  0  0  0
   12.5066   -6.6392    0.0000 C   0  0  0  0  0  0  0  0  0  0  0  0
   13.3725   -8.1392    0.0000 C   0  0  0  0  0  0  0  0  0  0  0  0
  1  2  1  0     0  0
  2  3  1  0     0  0
  3  4  1  0     0  0
  3  5  2  0     0  0
  4  6  1  0     0  0
  4  7  2  0     0  0
M  END
> <ID>
CHEBI:34840

> <NAME>
methyl methacrylate

> <DEFINITION>
An enoate ester having methacrylic acid as the carboxylic acid component and methanol as the alcohol component.

> <STAR>
3

> <SYNONYM>
MMA; Methylmethacrylate; Methyl-methacrylat; Methyl methylacrylate; Methyl methacrylate; Methyl alpha-methylacrylate; Methyl 2-methylpropenoate; Methyl 2-methylacrylate; Methyl 2-methyl-2-propenoate; Methacrylsaeuremethyl ester; Methacrylic acid methyl ester; Methacrylate de methyle; 2-Methylacrylic acid methyl ester; 2-Methyl-2-propenoic acid methyl ester; 2-(Methoxycarbonyl)-1-propene

> <FORMULA>
C5H8O2; C5H8O2

> <MASS>
100.117

> <MONOISOTOPIC_MASS>
100.05243

> <CHARGE>
0

> <SMILES>
COC(C(C)=C)=O

> <INCHI>
InChI=1S/C5H8O2/c1-4(2)5(6)7-3/h1H2,2-3H3

> <INCHIKEY>
VVQNEPGJFQJSBK-UHFFFAOYSA-N

> <BEILSTEIN_REGISTRY_NUMBER>
605459

> <CAS_REGISTRY_NUMBER>
80-62-6

> <GMELIN_REGISTRY_NUMBER>
2691

> <REAXYS_REGISTRY_NUMBER>
605459

> <CHEMIDPLUS>
80-62-6

> <HMDB_ACCESSION>
HMDB0032385

> <KEGG_COMPOUND_ACCESSION>
C14527

> <NIST_CHEMISTRY_WEBBOOK>
80-62-6

> <WIKIPEDIA_ACCESSION>
Methyl_methacrylate

> <PUBMED_CITATION>
10444249; 11714252; 16020090; 22566411; 23242048; 23306624; 23342990; 23432523; 23450227; 23508285; 23583434; 23584430; 23719017; 9036138

$$$$

Marvin  05041013242D          

 26 28  0  0  1  0            999 V2000
   12.5035   -7.2330    0.0000 N   0  0  0  0  0  0  0  0  0  0  0  0
   11.1729   -7.2330    0.0000 C   0  0  0  0  0  0  0  0  0  0  0  0
   11.1729   -5.9025    0.0000 C   0  0  0  0  0  0  0  0  0  0  0  0
   12.5035   -5.9025    0.0000 C   0  0  0  0  0  0  0  0  0  0  0  0
   13.6558   -7.8983    0.0000 C   0  0  0  0  0  0  0  0  0  0  0  0
    6.5637   -5.9025    0.0000 C   0  0  0  0  0  0  0  0  0  0  0  0
    7.7160   -5.2372    0.0000 C   0  0  0  0  0  0  0  0  0  0  0  0
    5.3482   -5.3613    0.0000 N   0  0  0  0  0  0  0  0  0  0  0  0
   10.0206   -5.2372    0.0000 N   0  0  0  0  0  0  0  0  0  0  0  0
    8.8683   -5.9025    0.0000 C   0  0  0  0  0  0  0  0  0  0  0  0
   13.6558   -5.2372    0.0000 S   0  0  0  0  0  0  0  0  0  0  0  0
    4.4578   -6.3501    0.0000 C   0  0  0  0  0  0  0  0  0  0  0  0
   14.8081   -7.2330    0.0000 C   0  0  0  0  0  0  0  0  0  0  0  0
    6.4246   -7.2257    0.0000 C   0  0  0  0  0  0  0  0  0  0  0  0
    5.1231   -7.5024    0.0000 S   0  0  0  0  0  0  0  0  0  0  0  0
   13.6558   -9.2289    0.0000 C   0  0  0  0  0  0  0  0  0  0  0  0
   14.8081   -5.9025    0.0000 C   0  0  0  0  0  0  0  0  0  0  0  0
    7.7160   -3.9066    0.0000 N   0  0  0  0  0  0  0  0  0  0  0  0
   15.9604   -7.8983    0.0000 C   0  0  0  0  0  0  0  0  0  0  0  0
    8.8683   -7.2330    0.0000 O   0  0  0  0  0  0  0  0  0  0  0  0
   14.8081   -9.8942    0.0000 O   0  0  0  0  0  0  0  0  0  0  0  0
    3.1346   -6.2110    0.0000 N   0  0  0  0  0  0  0  0  0  0  0  0
   12.5035   -9.8942    0.0000 O   0  0  0  0  0  0  0  0  0  0  0  0
    8.8683   -3.2413    0.0000 O   0  0  0  0  0  0  0  0  0  0  0  0
   10.0206   -7.8983    0.0000 O   0  0  0  0  0  0  0  0  0  0  0  0
   15.9604   -9.2289    0.0000 C   0  0  0  0  0  0  0  0  0  0  0  0
  2  1  1  0  0  0  0
  3  4  1  0  0  0  0
  4  1  1  0  0  0  0
  5  1  1  0  0  0  0
  6  7  1  0  0  0  0
  7 10  1  0  0  0  0
  8  6  1  0  0  0  0
  3  9  1  1  0  0  0
 10  9  1  0  0  0  0
  4 11  1  1  0  0  0
 12  8  2  0  0  0  0
 13  5  2  0  0  0  0
 14  6  2  0  0  0  0
 15 14  1  0  0  0  0
 16  5  1  0  0  0  0
 17 13  1  0  0  0  0
 18  7  2  0  0  0  0
 19 13  1  0  0  0  0
 20 10  2  0  0  0  0
 21 16  2  0  0  0  0
 22 12  1  0  0  0  0
 23 16  1  0  0  0  0
 24 18  1  0  0  0  0
  3  2  1  0  0  0  0
 11 17  1  0  0  0  0
 15 12  1  0  0  0  0
  2 25  2  0  0  0  0
 19 26  2  0  0  0  0
M  END
> <ID>
CHEBI:3485

> <NAME>
cefdinir

> <DEFINITION>
A cephalosporin compound having 7β-2-(2-amino-thiazol-4-yl)-2-[(Z)-hydroxyimino]-acetylamino- and 3-vinyl side groups.

> <STAR>
3

> <SECONDARY_ID>
CHEBI:184624

> <SYNONYM>
CFDN; cefdinir; (6R,7R,Z)-7-(2-(2-aminothiazol-4-yl)-2-(hydroxyimino)acetamido)-8-oxo-3-vinyl-5-thia-1-aza-bicyclo[4.2.0]oct-2-ene-2-carboxylic acid; (6R,7R)-7-{2-(2-Amino-thiazol-4-yl)-2-[(Z)-hydroxyimino]-acetylamino}-8-oxo-3-vinyl-5-thia-1-aza-bicyclo[4.2.0]oct-2-ene-2-carboxylic acid

> <IUPAC_NAME>
7beta-[(2Z)-2-(2-amino-1,3-thiazol-4-yl)-2-(hydroxyimino)acetamido]-3-ethenyl-3,4-didehydrocepham-4-carboxylic acid; (6R,7R)-7-{[(2Z)-2-(2-amino-1,3-thiazol-4-yl)-2-(hydroxyimino)acetyl]amino}-3-ethenyl-8-oxo-5-thia-1-azabicyclo[4.2.0]oct-2-ene-2-carboxylic acid

> <INN>
cefdinirum; cefdinir

> <FORMULA>
C14H13N5O5S2

> <MASS>
395.41400

> <MONOISOTOPIC_MASS>
395.03581

> <CHARGE>
0

> <SMILES>
Nc1nc(cs1)C(=N\O)\C(=O)N[C@H]1[C@H]2SCC(C=C)=C(N2C1=O)C(O)=O

> <INCHI>
InChI=1S/C14H13N5O5S2/c1-2-5-3-25-12-8(11(21)19(12)9(5)13(22)23)17-10(20)7(18-24)6-4-26-14(15)16-6/h2,4,8,12,24H,1,3H2,(H2,15,16)(H,17,20)(H,22,23)/b18-7-/t8-,12-/m1/s1

> <INCHIKEY>
RTXOFQZKPXMALH-GHXIOONMSA-N

> <BEILSTEIN_REGISTRY_NUMBER>
6829362

> <CAS_REGISTRY_NUMBER>
91832-40-5

> <CHEMIDPLUS>
91832-40-5

> <DRUGBANK_ACCESSION>
DB00535

> <KEGG_COMPOUND_ACCESSION>
C08110

> <KEGG_DRUG_ACCESSION>
D00917

> <WIKIPEDIA_ACCESSION>
Cefdinir

$$$$

Ketcher 03121814132D 1   1.00000     0.00000     0

 38 40  0     0  0            999 V2000
   17.3352  -13.4637    0.0000 C   0  0  0  0  0  0  0  0  0  0  0  0
   17.3352  -14.4605    0.0000 N   0  0  0  0  0  0  0  0  0  0  0  0
   18.1985  -14.9586    0.0000 C   0  0  0  0  0  0  0  0  0  0  0  0
   19.0615  -14.4605    0.0000 C   0  0  0  0  0  0  0  0  0  0  0  0
   19.0615  -13.4637    0.0000 C   0  0  0  0  0  0  0  0  0  0  0  0
   18.1985  -12.9654    0.0000 S   0  0  0  0  0  0  0  0  0  0  0  0
   16.3384  -13.4637    0.0000 C   0  0  0  0  0  0  0  0  0  0  0  0
   16.3384  -14.4605    0.0000 C   0  0  0  0  0  0  0  0  0  0  0  0
   15.4755  -12.9654    0.0000 N   0  0  0  0  0  0  0  0  0  0  0  0
   14.6122  -13.4637    0.0000 C   0  0  0  0  0  0  0  0  0  0  0  0
   14.6122  -14.4605    0.0000 O   0  0  0  0  0  0  0  0  0  0  0  0
   15.4755  -14.9586    0.0000 O   0  0  0  0  0  0  0  0  0  0  0  0
   13.7491  -12.9654    0.0000 C   0  0  0  0  0  0  0  0  0  0  0  0
   19.9378  -14.9666    0.0000 C   0  0  0  0  0  0  0  0  0  0  0  0
   12.8721  -13.4720    0.0000 C   0  0  0  0  0  0  0  0  0  0  0  0
   17.3352  -12.4661    0.0000 H   0  0  0  0  0  0  0  0  0  0  0  0
   20.8047  -14.4664    0.0000 C   0  0  0  0  0  0  0  0  0  0  0  0
   12.0667  -12.8690    0.0000 N   0  0  0  0  0  0  0  0  0  0  0  0
   11.2411  -13.4484    0.0000 S   0  0  0  0  0  0  0  0  0  0  0  0
   11.5369  -14.4124    0.0000 C   0  0  0  0  0  0  0  0  0  0  0  0
   12.5454  -14.4290    0.0000 N   0  0  0  0  0  0  0  0  0  0  0  0
   13.7490  -11.9533    0.0000 N   0  0  0  0  0  0  0  0  0  0  0  0
   18.1985  -15.9716    0.0000 C   0  0  0  0  0  0  0  0  0  0  0  0
   17.3324  -16.4714    0.0000 O   0  0  0  0  0  0  0  0  0  0  0  0
   19.0733  -16.4767    0.0000 O   0  0  0  0  0  0  0  0  0  0  0  0
   21.6773  -14.9703    0.0000 C   0  0  0  0  0  0  0  0  0  0  0  0
   22.5225  -14.4825    0.0000 N   0  0  0  0  0  0  0  0  0  0  0  0
   23.3777  -14.9764    0.0000 C   0  0  0  0  0  0  0  0  0  0  0  0
   24.2281  -14.4856    0.0000 C   0  0  0  0  0  0  0  0  0  0  0  0
   25.0805  -14.9779    0.0000 N   0  0  0  0  0  0  0  0  0  0  0  0
   24.2283  -13.4797    0.0000 O   0  0  0  0  0  0  0  0  0  0  0  0
   22.5226  -13.4797    0.0000 C   0  0  0  0  0  0  0  0  0  0  0  0
   22.5225  -15.4847    0.0000 C   0  0  0  0  0  0  0  0  0  0  0  0
   21.6423  -12.9711    0.0000 C   0  0  0  0  0  0  0  0  0  0  0  0
   10.9237  -15.2283    0.0000 N   0  0  0  0  0  0  0  0  0  0  0  0
   14.5902  -11.4676    0.0000 O   0  0  0  0  0  0  0  0  0  0  0  0
   14.5902  -10.4685    0.0000 C   0  0  0  0  0  0  0  0  0  0  0  0
   15.4468   -9.9738    0.0000 F   0  0  0  0  0  0  0  0  0  0  0  0
  1  2  1  0     0  0
  2  3  1  0     0  0
  3  4  2  0     0  0
  4  5  1  0     0  0
  5  6  1  0     0  0
  1  6  1  0     0  0
  1  7  1  0     0  0
  7  8  1  0     0  0
  2  8  1  0     0  0
  7  9  1  1     0  0
  9 10  1  0     0  0
 10 11  2  0     0  0
  8 12  2  0     0  0
 10 13  1  0     0  0
  4 14  1  0     0  0
 13 15  1  0     0  0
  1 16  1  6     0  0
 14 17  2  0     0  0
 15 18  2  0     0  0
 18 19  1  0     0  0
 19 20  1  0     0  0
 20 21  2  0     0  0
 15 21  1  0     0  0
 13 22  2  0     0  0
  3 23  1  0     0  0
 23 24  2  0     0  0
 23 25  1  0     0  0
 17 26  1  0     0  0
 26 27  1  0     0  0
 27 28  1  0     0  0
 28 29  1  0     0  0
 29 30  1  0     0  0
 29 31  2  0     0  0
 27 32  1  0     0  0
 27 33  1  0     0  0
 32 34  1  0     0  0
 20 35  1  0     0  0
 22 36  1  0     0  0
 36 37  1  0     0  0
 37 38  1  0     0  0
M  CHG  2  25  -1  27   1
M  END
> <ID>
CHEBI:3488

> <NAME>
cefluprenam

> <DEFINITION>
A fourth-generation cephalosporin antibiotic having (1E)-3-[(2-amino-2-oxoethyl)(ethyl)methylazaniumyl]prop-1-en-1-yl and {(2Z)-2-(5-amino-1,2,4-thiadiazol-3-yl)-2-[(fluoromethoxy)imino]acetyl}amino side groups located at positions 3 and 7 respectively.

> <STAR>
3

> <SYNONYM>
Antibiotic E 1077; (6R,7R)-3-{(1E)-3-[(2-amino-2-oxoethyl)(ethyl)methylazaniumyl]prop-1-en-1-yl}-7-({(2Z)-2-(5-amino-1,2,4-thiadiazol-3-yl)-2-[(fluoromethoxy)imino]acetyl}amino)-8-oxo-5-thia-1-azabicyclo[4.2.0]oct-2-ene-2-carboxylate

> <IUPAC_NAME>
7-({(2Z)-2-(5-amino-1,2,4-thiadiazol-3-yl)-2-[(fluoromethoxy)imino]acetyl}amino)-3-[(1E)-3-[(2-amino-2-oxoethyl)(ethyl)methylazaniumyl]prop-1-en-1-yl]-3,4-didehydrocepham-4-carboxylate

> <INN>
cefluprenamum; cefluprenam; cefluprenam; cefluprenam

> <FORMULA>
C20H25FN8O6S2

> <MASS>
556.594

> <MONOISOTOPIC_MASS>
556.13225

> <CHARGE>
0

> <SMILES>
[C@]12(N(C(=C(CS1)/C=C/C[N+](CC(N)=O)(CC)C)C(=O)[O-])C([C@H]2NC(=O)/C(/C3=NSC(=N3)N)=N\OCF)=O)[H]

> <INCHI>
InChI=1S/C20H25FN8O6S2/c1-3-29(2,7-11(22)30)6-4-5-10-8-36-18-13(17(32)28(18)14(10)19(33)34)24-16(31)12(26-35-9-21)15-25-20(23)37-27-15/h4-5,13,18H,3,6-9H2,1-2H3,(H5-,22,23,24,25,27,30,31,33,34)/b5-4+,26-12-/t13-,18-,29?/m1/s1

> <INCHIKEY>
XAKKNLNAJBNLPC-MAYKBZFQSA-N

> <CAS_REGISTRY_NUMBER>
116853-25-9

> <CHEMIDPLUS>
116853-25-9

> <KEGG_DRUG_ACCESSION>
D01054

> <WIKIPEDIA_ACCESSION>
Cefluprenam

> <PUBMED_CITATION>
18611779; 29017833; 9311195

$$$$

Marvin  05150917102D          

 31 33  0  0  1  0            999 V2000
   13.7004  -18.7316    0.0000 S   0  0  0  0  0  0  0  0  0  0  0  0
   12.9859  -19.1441    0.0000 C   0  0  1  0  0  0  0  0  0  0  0  0
   12.9859  -19.9691    0.0000 N   0  0  0  0  0  0  0  0  0  0  0  0
   13.7004  -20.3816    0.0000 C   0  0  0  0  0  0  0  0  0  0  0  0
   14.4148  -19.9691    0.0000 C   0  0  0  0  0  0  0  0  0  0  0  0
   14.4148  -19.1441    0.0000 C   0  0  0  0  0  0  0  0  0  0  0  0
   12.1609  -19.1441    0.0000 C   0  0  1  0  0  0  0  0  0  0  0  0
   12.1609  -19.9691    0.0000 C   0  0  0  0  0  0  0  0  0  0  0  0
   13.7004  -21.2066    0.0000 C   0  0  0  0  0  0  0  0  0  0  0  0
   12.9859  -21.6191    0.0000 O   0  0  0  0  0  0  0  0  0  0  0  0
   14.4148  -21.6191    0.0000 O   0  0  0  0  0  0  0  0  0  0  0  0
   11.5775  -20.5525    0.0000 O   0  0  0  0  0  0  0  0  0  0  0  0
   11.4464  -18.7316    0.0000 N   0  0  0  0  0  0  0  0  0  0  0  0
   10.7319  -19.1441    0.0000 C   0  0  0  0  0  0  0  0  0  0  0  0
   10.0175  -18.7316    0.0000 C   0  0  0  0  0  0  0  0  0  0  0  0
    9.3030  -19.1441    0.0000 S   0  0  0  0  0  0  0  0  0  0  0  0
    8.5885  -18.7316    0.0000 C   0  0  0  0  0  0  0  0  0  0  0  0
    7.8741  -19.1441    0.0000 C   0  0  0  0  0  0  0  0  0  0  0  0
    7.1596  -19.5566    0.0000 N   0  0  0  0  0  0  0  0  0  0  0  0
   10.7319  -19.9691    0.0000 O   0  0  0  0  0  0  0  0  0  0  0  0
   12.9859  -18.3191    0.0000 H   0  0  0  0  0  0  0  0  0  0  0  0
   12.1609  -18.3191    0.0000 O   0  0  0  0  0  0  0  0  0  0  0  0
   12.7443  -17.7357    0.0000 C   0  0  0  0  0  0  0  0  0  0  0  0
   15.1293  -20.3816    0.0000 C   0  0  0  0  0  0  0  0  0  0  0  0
   15.8438  -19.9691    0.0000 S   0  0  0  0  0  0  0  0  0  0  0  0
   17.5112  -21.3163    0.0000 N   0  0  0  0  0  0  0  0  0  0  0  0
   17.8786  -20.5776    0.0000 N   0  0  0  0  0  0  0  0  0  0  0  0
   17.2897  -20.0000    0.0000 N   0  0  0  0  0  0  0  0  0  0  0  0
   16.5582  -20.3816    0.0000 C   0  0  0  0  0  0  0  0  0  0  0  0
   16.6951  -21.1951    0.0000 N   0  0  0  0  0  0  0  0  0  0  0  0
   17.3971  -19.1750    0.0000 C   0  0  0  0  0  0  0  0  0  0  0  0
  1  2  1  0  0  0  0
  2  3  1  0  0  0  0
  3  4  1  0  0  0  0
  4  5  2  0  0  0  0
  5  6  1  0  0  0  0
  1  6  1  0  0  0  0
  2  7  1  0  0  0  0
  3  8  1  0  0  0  0
  7  8  1  0  0  0  0
  4  9  1  0  0  0  0
  9 10  2  0  0  0  0
  9 11  1  0  0  0  0
  8 12  2  0  0  0  0
  7 13  1  1  0  0  0
 13 14  1  0  0  0  0
 14 15  1  0  0  0  0
 15 16  1  0  0  0  0
 16 17  1  0  0  0  0
 17 18  1  0  0  0  0
 18 19  3  0  0  0  0
 14 20  2  0  0  0  0
  2 21  1  6  0  0  0
  7 22  1  6  0  0  0
 22 23  1  0  0  0  0
  5 24  1  0  0  0  0
 24 25  1  0  0  0  0
 25 29  1  0  0  0  0
 26 27  2  0  0  0  0
 27 28  1  0  0  0  0
 28 29  1  0  0  0  0
 29 30  2  0  0  0  0
 26 30  1  0  0  0  0
 28 31  1  0  0  0  0
M  END
> <ID>
CHEBI:3489

> <NAME>
cefmetazole

> <DEFINITION>
A second-generation cephalosporin antibiotic having N1-methyltetrazol-5-ylthiomethyl, {[(cyanomethyl)sulfanyl]acetyl}amino and methoxy side-groups at positions 3, 7β and 7α respectively of the parent cephem bicyclic structure.

> <STAR>
3

> <SYNONYM>
(6R,7S)-7-({[(cyanomethyl)sulfanyl]acetyl}amino)-7-methoxy-3-{[(1-methyl-1H-tetrazol-5-yl)sulfanyl]methyl}-8-oxo-5-thia-1-azabicyclo[4.2.0]oct-2-ene-2-carboxylic acid

> <IUPAC_NAME>
7beta-{[(cyanomethyl)sulfanyl]acetamido}-7alpha-methoxy-3-{[(1-methyl-1H-tetrazol-5-yl)sulfanyl]methyl}ceph-3-em-4-carboxylic acid

> <INN>
cefmetazolum; cefmetazolo; cefmetazole

> <FORMULA>
C15H17N7O5S3

> <MASS>
471.53400

> <MONOISOTOPIC_MASS>
471.04533

> <CHARGE>
0

> <SMILES>
[H][C@]12SCC(CSc3nnnn3C)=C(N1C(=O)[C@]2(NC(=O)CSCC#N)OC)C(O)=O

> <INCHI>
InChI=1S/C15H17N7O5S3/c1-21-14(18-19-20-21)30-6-8-5-29-13-15(27-2,17-9(23)7-28-4-3-16)12(26)22(13)10(8)11(24)25/h13H,4-7H2,1-2H3,(H,17,23)(H,24,25)/t13-,15+/m1/s1

> <INCHIKEY>
SNBUBQHDYVFSQF-HIFRSBDPSA-N

> <BEILSTEIN_REGISTRY_NUMBER>
5406306

> <CAS_REGISTRY_NUMBER>
56796-20-4

> <CHEMIDPLUS>
56796-20-4

> <DRUGBANK_ACCESSION>
DB00274

> <KEGG_COMPOUND_ACCESSION>
C08103

> <KEGG_DRUG_ACCESSION>
D00910

> <LINCS_ACCESSION>
LSM-5594

> <WIKIPEDIA_ACCESSION>
Cefmetazole

> <PUBMED_CITATION>
10109799; 23140947; 23705013; 2416589; 29017833; 8452349

$$$$

Marvin  05150917592D          

 36 39  0  0  1  0            999 V2000
   13.7004  -18.7316    0.0000 S   0  0  0  0  0  0  0  0  0  0  0  0
   12.9859  -19.1441    0.0000 C   0  0  1  0  0  0  0  0  0  0  0  0
   12.9859  -19.9691    0.0000 N   0  0  0  0  0  0  0  0  0  0  0  0
   13.7004  -20.3816    0.0000 C   0  0  0  0  0  0  0  0  0  0  0  0
   14.4148  -19.9691    0.0000 C   0  0  0  0  0  0  0  0  0  0  0  0
   14.4148  -19.1441    0.0000 C   0  0  0  0  0  0  0  0  0  0  0  0
   12.1609  -19.1441    0.0000 C   0  0  1  0  0  0  0  0  0  0  0  0
   12.1609  -19.9691    0.0000 C   0  0  0  0  0  0  0  0  0  0  0  0
   13.7004  -21.2066    0.0000 C   0  0  0  0  0  0  0  0  0  0  0  0
   12.9859  -21.6191    0.0000 O   0  0  0  0  0  0  0  0  0  0  0  0
   14.4148  -21.6191    0.0000 O   0  0  0  0  0  0  0  0  0  0  0  0
   11.5775  -20.5525    0.0000 O   0  0  0  0  0  0  0  0  0  0  0  0
   11.4464  -18.7316    0.0000 N   0  0  0  0  0  0  0  0  0  0  0  0
   10.7319  -19.1441    0.0000 C   0  0  0  0  0  0  0  0  0  0  0  0
   10.0175  -18.7316    0.0000 C   0  0  1  0  0  0  0  0  0  0  0  0
    9.3030  -19.1441    0.0000 C   0  0  0  0  0  0  0  0  0  0  0  0
   10.7319  -19.9691    0.0000 O   0  0  0  0  0  0  0  0  0  0  0  0
   12.9859  -18.3191    0.0000 H   0  0  0  0  0  0  0  0  0  0  0  0
   15.1293  -20.3816    0.0000 C   0  0  0  0  0  0  0  0  0  0  0  0
   15.8438  -19.9691    0.0000 S   0  0  0  0  0  0  0  0  0  0  0  0
   17.5112  -21.3163    0.0000 N   0  0  0  0  0  0  0  0  0  0  0  0
   17.8786  -20.5776    0.0000 N   0  0  0  0  0  0  0  0  0  0  0  0
   17.2897  -20.0000    0.0000 N   0  0  0  0  0  0  0  0  0  0  0  0
   16.5582  -20.3816    0.0000 C   0  0  0  0  0  0  0  0  0  0  0  0
   16.6951  -21.1951    0.0000 N   0  0  0  0  0  0  0  0  0  0  0  0
   17.3971  -19.1750    0.0000 C   0  0  0  0  0  0  0  0  0  0  0  0
    8.5885  -18.7316    0.0000 C   0  0  0  0  0  0  0  0  0  0  0  0
    7.8741  -19.1441    0.0000 C   0  0  0  0  0  0  0  0  0  0  0  0
    7.8741  -19.9691    0.0000 C   0  0  0  0  0  0  0  0  0  0  0  0
    8.5885  -20.3816    0.0000 C   0  0  0  0  0  0  0  0  0  0  0  0
    9.3030  -19.9691    0.0000 C   0  0  0  0  0  0  0  0  0  0  0  0
   10.0175  -17.9066    0.0000 O   0  0  0  0  0  0  0  0  0  0  0  0
   18.1116  -18.7625    0.0000 S   0  0  0  0  0  0  0  0  0  0  0  0
   18.8260  -18.3500    0.0000 O   0  0  0  0  0  0  0  0  0  0  0  0
   17.6991  -18.0480    0.0000 O   0  0  0  0  0  0  0  0  0  0  0  0
   18.5241  -19.4770    0.0000 O   0  0  0  0  0  0  0  0  0  0  0  0
  1  2  1  0  0  0  0
  2  3  1  0  0  0  0
  3  4  1  0  0  0  0
  4  5  2  0  0  0  0
  5  6  1  0  0  0  0
  1  6  1  0  0  0  0
  2  7  1  0  0  0  0
  3  8  1  0  0  0  0
  7  8  1  0  0  0  0
  4  9  1  0  0  0  0
  9 10  2  0  0  0  0
  9 11  1  0  0  0  0
  8 12  2  0  0  0  0
  7 13  1  1  0  0  0
 13 14  1  0  0  0  0
 14 15  1  0  0  0  0
 15 16  1  0  0  0  0
 14 17  2  0  0  0  0
  2 18  1  6  0  0  0
  5 19  1  0  0  0  0
 19 20  1  0  0  0  0
 20 24  1  0  0  0  0
 21 22  2  0  0  0  0
 22 23  1  0  0  0  0
 23 24  1  0  0  0  0
 24 25  2  0  0  0  0
 21 25  1  0  0  0  0
 23 26  1  0  0  0  0
 31 16  2  0  0  0  0
 27 16  1  0  0  0  0
 27 28  2  0  0  0  0
 28 29  1  0  0  0  0
 29 30  2  0  0  0  0
 30 31  1  0  0  0  0
 15 32  1  1  0  0  0
 26 33  1  0  0  0  0
 33 34  1  0  0  0  0
 33 35  2  0  0  0  0
 33 36  2  0  0  0  0
M  END
> <ID>
CHEBI:3491

> <NAME>
cefonicid

> <DEFINITION>
A cephalosporin bearing {[1-(sulfomethyl)-1H-tetrazol-5-yl]sulfanyl}methyl and (R)-2-hydroxy-2-phenylacetamido groups at positions 3 and 7, respectively, of the cephem skeleton.

> <STAR>
3

> <SYNONYM>
Cefonicid; (6R,7R)-7-{[(2R)-2-hydroxy-2-phenylacetyl]amino}-8-oxo-3-({[1-(sulfomethyl)-1H-tetrazol-5-yl]sulfanyl}methyl)-5-thia-1-azabicyclo[4.2.0]oct-2-ene-2-carboxylic acid

> <IUPAC_NAME>
6beta-[(2R)-2-hydroxy-2-phenylacetamido]-3-({[1-(sulfomethyl)-1H-tetrazol-5-yl]sulfanyl}methyl)ceph-3-em-4-carboxylic acid

> <INN>
cefonicidum; cefonicido; cefonicid

> <FORMULA>
C18H18N6O8S3

> <MASS>
542.56600

> <MONOISOTOPIC_MASS>
542.03483

> <CHARGE>
0

> <SMILES>
[H][C@]12SCC(CSc3nnnn3CS(O)(=O)=O)=C(N1C(=O)[C@H]2NC(=O)[C@H](O)c1ccccc1)C(O)=O

> <INCHI>
InChI=1S/C18H18N6O8S3/c25-13(9-4-2-1-3-5-9)14(26)19-11-15(27)24-12(17(28)29)10(6-33-16(11)24)7-34-18-20-21-22-23(18)8-35(30,31)32/h1-5,11,13,16,25H,6-8H2,(H,19,26)(H,28,29)(H,30,31,32)/t11-,13-,16-/m1/s1

> <INCHIKEY>
DYAIAHUQIPBDIP-AXAPSJFSSA-N

> <BEILSTEIN_REGISTRY_NUMBER>
8175049

> <CAS_REGISTRY_NUMBER>
61270-58-4

> <REAXYS_REGISTRY_NUMBER>
8175049

> <CHEMIDPLUS>
61270-58-4

> <DRUGBANK_ACCESSION>
DB01328

> <KEGG_COMPOUND_ACCESSION>
C06882

> <KEGG_DRUG_ACCESSION>
D07644

> <WIKIPEDIA_ACCESSION>
Cefonicid

> <PUBMED_CITATION>
12041774; 21425867; 29017833

$$$$

Mrv0541 11241415502D          

 46 50  0  0  1  0            999 V2000
    4.2096   -5.8286    0.0000 N   0  0  0  0  0  0  0  0  0  0  0  0
   -0.3321   -2.8562    0.0000 N   0  0  0  0  0  0  0  0  0  0  0  0
    3.3544   -5.8286    0.0000 C   0  0  0  0  0  0  0  0  0  0  0  0
    3.3544   -5.0108    0.0000 C   0  0  2  0  0  0  0  0  0  0  0  0
    4.2096   -5.0108    0.0000 C   0  0  1  0  0  0  0  0  0  0  0  0
    0.0540   -2.1588    0.0000 C   0  0  0  0  0  0  0  0  0  0  0  0
    0.0540   -3.5868    0.0000 C   0  0  0  0  0  0  0  0  0  0  0  0
    7.0907   -7.5142    0.0000 C   0  0  0  0  0  0  0  0  0  0  0  0
    4.9112   -6.2521    0.0000 C   0  0  0  0  0  0  0  0  0  0  0  0
    7.7508   -7.1032    0.0000 N   0  0  0  0  0  0  0  0  0  0  0  0
    7.2775   -8.2739    0.0000 N   0  0  0  0  0  0  0  0  0  0  0  0
   -0.3321   -1.4364    0.0000 C   0  0  0  0  0  0  0  0  0  0  0  0
    8.1493   -8.2863    0.0000 N   0  0  0  0  0  0  0  0  0  0  0  0
    8.3320   -7.5473    0.0000 N   0  0  0  0  0  0  0  0  0  0  0  0
    2.5200   -5.0108    0.0000 N   0  0  0  0  0  0  0  0  0  0  0  0
    4.9112   -4.5874    0.0000 S   0  0  0  0  0  0  0  0  0  0  0  0
    5.6211   -5.8286    0.0000 C   0  0  0  0  0  0  0  0  0  0  0  0
    0.8884   -3.5868    0.0000 N   0  0  0  0  0  0  0  0  0  0  0  0
    2.1214   -4.2885    0.0000 C   0  0  0  0  0  0  0  0  0  0  0  0
   -1.1956   -1.4364    0.0000 N   0  0  0  0  0  0  0  0  0  0  0  0
    1.2870   -4.2885    0.0000 C   0  0  1  0  0  0  0  0  0  0  0  0
    4.9112   -7.0907    0.0000 C   0  0  0  0  0  0  0  0  0  0  0  0
   -1.1956   -2.8562    0.0000 C   0  0  0  0  0  0  0  0  0  0  0  0
    6.3434   -7.1032    0.0000 S   0  0  0  0  0  0  0  0  0  0  0  0
    5.6211   -5.0108    0.0000 C   0  0  0  0  0  0  0  0  0  0  0  0
    2.7815   -6.4015    0.0000 O   0  0  0  0  0  0  0  0  0  0  0  0
    6.3434   -6.2645    0.0000 C   0  0  0  0  0  0  0  0  0  0  0  0
    0.9009   -2.1588    0.0000 O   0  0  0  0  0  0  0  0  0  0  0  0
   -0.3321   -4.2885    0.0000 O   0  0  0  0  0  0  0  0  0  0  0  0
   -1.5900   -2.1588    0.0000 C   0  0  0  0  0  0  0  0  0  0  0  0
    0.0665   -0.6974    0.0000 O   0  0  0  0  0  0  0  0  0  0  0  0
    0.8884   -5.0108    0.0000 C   0  0  0  0  0  0  0  0  0  0  0  0
    2.5200   -3.5868    0.0000 O   0  0  0  0  0  0  0  0  0  0  0  0
    5.6211   -7.5142    0.0000 O   0  0  0  0  0  0  0  0  0  0  0  0
    0.0540   -5.0108    0.0000 C   0  0  0  0  0  0  0  0  0  0  0  0
    1.2870   -5.7290    0.0000 C   0  0  0  0  0  0  0  0  0  0  0  0
    7.7508   -6.2936    0.0000 C   0  0  0  0  0  0  0  0  0  0  0  0
    4.2096   -7.5142    0.0000 O   0  0  0  0  0  0  0  0  0  0  0  0
    0.0540   -6.4182    0.0000 C   0  0  0  0  0  0  0  0  0  0  0  0
   -0.3321   -5.7290    0.0000 C   0  0  0  0  0  0  0  0  0  0  0  0
    0.8884   -6.4182    0.0000 C   0  0  0  0  0  0  0  0  0  0  0  0
   -1.6024   -0.7224    0.0000 C   0  0  0  0  0  0  0  0  0  0  0  0
   -0.3694   -7.1654    0.0000 O   0  0  0  0  0  0  0  0  0  0  0  0
   -2.4369   -0.7224    0.0000 C   0  0  0  0  0  0  0  0  0  0  0  0
    4.2096   -4.1764    0.0000 H   0  0  0  0  0  0  0  0  0  0  0  0
    3.1551   -4.2096    0.0000 H   0  0  0  0  0  0  0  0  0  0  0  0
  2  7  1  0  0  0  0
  3  1  1  0  0  0  0
  4  5  1  0  0  0  0
  5  1  1  0  0  0  0
  6  2  1  0  0  0  0
  7 18  1  0  0  0  0
  8 24  1  0  0  0  0
  9  1  1  0  0  0  0
 10  8  1  0  0  0  0
 11  8  2  0  0  0  0
 12  6  1  0  0  0  0
 13 11  1  0  0  0  0
 14 10  1  0  0  0  0
  4 15  1  1  0  0  0
 16  5  1  0  0  0  0
 17  9  2  0  0  0  0
 18 21  1  0  0  0  0
 19 15  1  0  0  0  0
 20 30  1  0  0  0  0
 21 19  1  0  0  0  0
 22  9  1  0  0  0  0
 23  2  1  0  0  0  0
 24 27  1  0  0  0  0
 25 17  1  0  0  0  0
 26  3  2  0  0  0  0
 27 17  1  0  0  0  0
 28  6  2  0  0  0  0
 29  7  2  0  0  0  0
 30 23  1  0  0  0  0
 31 12  2  0  0  0  0
 21 32  1  1  0  0  0
 33 19  2  0  0  0  0
 34 22  2  0  0  0  0
 35 32  2  0  0  0  0
 36 32  1  0  0  0  0
 37 10  1  0  0  0  0
 38 22  1  0  0  0  0
 39 41  1  0  0  0  0
 40 35  1  0  0  0  0
 41 36  2  0  0  0  0
 42 20  1  0  0  0  0
 43 39  1  0  0  0  0
 44 42  1  0  0  0  0
  5 45  1  6  0  0  0
  4 46  1  6  0  0  0
  4  3  1  0  0  0  0
 25 16  1  0  0  0  0
 14 13  2  0  0  0  0
 40 39  2  0  0  0  0
 20 12  1  0  0  0  0
M  END
> <ID>
CHEBI:3493

> <NAME>
cefoperazone

> <DEFINITION>
A semi-synthetic parenteral cephalosporin with a tetrazolyl moiety that confers beta-lactamase resistance.

> <STAR>
3

> <SECONDARY_ID>
CHEBI:258120

> <SYNONYM>
CPZ; Cefoperazone; cefoperazon; cefobid; (6R,7R)-7-[[2-[(4-ethyl-2,3-dioxopiperazine-1-carbonyl)amino]-2-(4-hydroxyphenyl)acetyl]amino]-3-[(1-methyltetrazol-5-yl)sulfanylmethyl]-8-oxo-5-thia-1-azabicyclo[4.2.0]oct-2-ene-2-carboxylic acid; (6R,7R)-7-((R)-2-(4-Ethyl-2,3-dioxo-1-piperazinylcarboxamido)-2-(4-hydroxyphenyl)acetamido)-3-((1-methyl-1H-tetrazol-5-yl)thiomethyl)-8-oxo-5-thia-1-azabicyclo(4.2.0)oct-2-en-2-carbonsaeure

> <IUPAC_NAME>
7beta-{[(2R)-2-{[(4-ethyl-2,3-dioxopiperazin-1-yl)carbonyl]amino}-2-(4-hydroxyphenyl)acetyl]amino}-3-[(1-methyl-1H-tetrazol-5-yl)sulfanyl]methyl-3,4-didehydrocepham-4-carboxylic acid; (6R,7R)-7-{[(2R)-2-{[(4-ethyl-2,3-dioxopiperazin-1-yl)carbonyl]amino}-2-(4-hydroxyphenyl)acetyl]amino}-3-{[(1-methyl-1H-tetrazol-5-yl)sulfanyl]methyl}-8-oxo-5-thia-1-azabicyclo[4.2.0]oct-2-ene-2-carboxylic acid

> <INN>
cefoperazonum; cefoperazono; cefoperazone

> <FORMULA>
C25H27N9O8S2

> <MASS>
645.66700

> <MONOISOTOPIC_MASS>
645.14240

> <CHARGE>
0

> <SMILES>
CCN1CCN(C(=O)N[C@@H](C(=O)N[C@H]2[C@H]3SCC(CSc4nnnn4C)=C(N3C2=O)C(O)=O)c2ccc(O)cc2)C(=O)C1=O

> <INCHI>
InChI=1S/C25H27N9O8S2/c1-3-32-8-9-33(21(39)20(32)38)24(42)27-15(12-4-6-14(35)7-5-12)18(36)26-16-19(37)34-17(23(40)41)13(10-43-22(16)34)11-44-25-28-29-30-31(25)2/h4-7,15-16,22,35H,3,8-11H2,1-2H3,(H,26,36)(H,27,42)(H,40,41)/t15-,16-,22-/m1/s1

> <INCHIKEY>
GCFBRXLSHGKWDP-XCGNWRKASA-N

> <CAS_REGISTRY_NUMBER>
62893-19-0

> <REAXYS_REGISTRY_NUMBER>
6050252

> <CHEMIDPLUS>
62893-19-0

> <DRUGBANK_ACCESSION>
DB01329

> <KEGG_COMPOUND_ACCESSION>
C06883

> <KEGG_DRUG_ACCESSION>
D07645

> <LINCS_ACCESSION>
LSM-15520

> <WIKIPEDIA_ACCESSION>
Cefoperazone

> <PUBMED_CITATION>
1384868; 15073933; 17560751; 19241941; 24033828; 28543395

$$$$

Marvin  04151013422D          

 37 40  0  0  0  0            999 V2000
   -1.7089    0.7366    0.0000 C   0  0  0  0  0  0  0  0  0  0  0  0
   -1.7089    1.5616    0.0000 C   0  0  2  0  0  0  0  0  0  0  0  0
   -0.8839    1.5616    0.0000 C   0  0  2  0  0  0  0  0  0  0  0  0
   -0.8839    0.7366    0.0000 N   0  0  0  0  0  0  0  0  0  0  0  0
   -0.1695    1.9741    0.0000 S   0  0  0  0  0  0  0  0  0  0  0  0
   -0.1695    0.3241    0.0000 C   0  0  0  0  0  0  0  0  0  0  0  0
    0.5450    0.7366    0.0000 C   0  0  0  0  0  0  0  0  0  0  0  0
    0.5450    1.5616    0.0000 C   0  0  0  0  0  0  0  0  0  0  0  0
   -2.4234    1.9741    0.0000 N   0  0  0  0  0  0  0  0  0  0  0  0
   -3.1379    1.5616    0.0000 C   0  0  0  0  0  0  0  0  0  0  0  0
   -3.1379    0.7366    0.0000 O   0  0  0  0  0  0  0  0  0  0  0  0
   -2.2923    0.1532    0.0000 O   0  0  0  0  0  0  0  0  0  0  0  0
   -3.8523    1.9741    0.0000 C   0  0  0  0  0  0  0  0  0  0  0  0
   -4.5668    1.5616    0.0000 C   0  0  0  0  0  0  0  0  0  0  0  0
   -5.2813    1.9741    0.0000 C   0  0  0  0  0  0  0  0  0  0  0  0
   -5.9957    1.5616    0.0000 C   0  0  0  0  0  0  0  0  0  0  0  0
   -5.9957    0.7366    0.0000 C   0  0  0  0  0  0  0  0  0  0  0  0
   -5.2813    0.3241    0.0000 C   0  0  0  0  0  0  0  0  0  0  0  0
   -4.5668    0.7366    0.0000 C   0  0  0  0  0  0  0  0  0  0  0  0
   -0.1695   -0.5009    0.0000 C   0  0  0  0  0  0  0  0  0  0  0  0
    0.5450   -0.9134    0.0000 O   0  0  0  0  0  0  0  0  0  0  0  0
   -0.8839   -0.9134    0.0000 O   0  0  0  0  0  0  0  0  0  0  0  0
   -0.8839    2.3866    0.0000 H   0  0  0  0  0  0  0  0  0  0  0  0
   -1.7089    2.3866    0.0000 H   0  0  0  0  0  0  0  0  0  0  0  0
   -3.8523    0.3241    0.0000 C   0  0  0  0  0  0  0  0  0  0  0  0
   -3.8523   -0.5009    0.0000 N   0  0  0  0  0  0  0  0  0  0  0  0
    1.2595    0.3241    0.0000 C   0  0  0  0  0  0  0  0  0  0  0  0
    1.9739    0.7366    0.0000 S   0  0  0  0  0  0  0  0  0  0  0  0
    1.9508    1.5613    0.0000 C   0  0  0  0  0  0  0  0  0  0  0  0
    1.3167    2.0892    0.0000 N   0  0  0  0  0  0  0  0  0  0  0  0
    2.6487    2.0011    0.0000 N   0  0  0  0  0  0  0  0  0  0  0  0
    2.4461    2.8009    0.0000 N   0  0  0  0  0  0  0  0  0  0  0  0
    1.6228    2.8553    0.0000 N   0  0  0  0  0  0  0  0  0  0  0  0
    3.4147    1.6950    0.0000 C   0  0  0  0  0  0  0  0  0  0  0  0
    3.4440    0.8705    0.0000 C   0  0  0  0  0  0  0  0  0  0  0  0
    2.7446    0.4329    0.0000 O   0  0  0  0  0  0  0  0  0  0  0  0
    4.1727    0.4836    0.0000 O   0  0  0  0  0  0  0  0  0  0  0  0
  2  3  1  0  0  0  0
  1  4  1  0  0  0  0
  5  3  1  0  0  0  0
  3  4  1  0  0  0  0
  4  6  1  0  0  0  0
  5  8  1  0  0  0  0
  6  7  2  0  0  0  0
  7  8  1  0  0  0  0
  9  2  1  0  0  0  0
  1  2  1  0  0  0  0
  9 10  1  0  0  0  0
 10 11  2  0  0  0  0
  1 12  2  0  0  0  0
 10 13  1  0  0  0  0
 13 14  1  0  0  0  0
 19 14  2  0  0  0  0
 15 14  1  0  0  0  0
 15 16  2  0  0  0  0
 16 17  1  0  0  0  0
 17 18  2  0  0  0  0
 18 19  1  0  0  0  0
  6 20  1  0  0  0  0
 20 21  1  0  0  0  0
 20 22  2  0  0  0  0
  3 23  1  6  0  0  0
  2 24  1  6  0  0  0
 19 25  1  0  0  0  0
 25 26  1  0  0  0  0
  7 27  1  0  0  0  0
 27 28  1  0  0  0  0
 28 29  1  0  0  0  0
 30 29  2  0  0  0  0
 29 31  1  0  0  0  0
 30 33  1  0  0  0  0
 31 32  1  0  0  0  0
 32 33  2  0  0  0  0
 31 34  1  0  0  0  0
 34 35  1  0  0  0  0
 35 36  2  0  0  0  0
 35 37  1  0  0  0  0
M  END
> <ID>
CHEBI:3495

> <NAME>
ceforanide

> <DEFINITION>
A second-generation cephalosporin antibiotic with {[1-(carboxymethyl)-1H-tetrazol-5-yl]sulfanyl}methyl and 2-(aminomethyl)phenylacetamido groups at positions 3 and 7, respectively, of the cephem skeleton. It is effective against many coliforms, including Escherichia coli, Klebsiella, Enterobacter and Proteus, and most strains of Salmonella, Shigella, Hemophilus, Citrobacter and Arizona species.

> <STAR>
3

> <SYNONYM>
Ceforanide; 7beta-[2-(aminomethyl)phenyl]acetamido-3-{[1-(carboxymethyl)-1H-tetrazol-5-yl]sulfanyl}methyl-3,4-didehydrocepham-4-carboxylic acid; 7-[O-(aminomethyl)phenylacetamido]-3-[[[1-(carboxymethyl)-1H-tetrazol-5-yl]thio]methyl]-3-cephem-4-carboxylic acid; (6R,7R)-7-[[2-[2-(aminomethyl)phenyl]acetyl]amino]-3-[[1-(carboxymethyl)tetrazol-5-yl]sulfanylmethyl]-8-oxo-5-thia-1-azabicyclo[4.2.0]oct-2-ene-2-carboxylic acid

> <IUPAC_NAME>
(6R,7R)-7-({[2-(aminomethyl)phenyl]acetyl}amino)-3-({[1-(carboxymethyl)-1H-tetrazol-5-yl]sulfanyl}methyl)-8-oxo-5-thia-1-azabicyclo[4.2.0]oct-2-ene-2-carboxylic acid

> <INN>
ceforanidum; ceforanido; ceforanide

> <FORMULA>
C20H21N7O6S2

> <MASS>
519.55400

> <MONOISOTOPIC_MASS>
519.09947

> <CHARGE>
0

> <SMILES>
[H][C@]12SCC(CSc3nnnn3CC(O)=O)=C(N1C(=O)[C@@]2([H])NC(=O)Cc1ccccc1CN)C(O)=O

> <INCHI>
InChI=1S/C20H21N7O6S2/c21-6-11-4-2-1-3-10(11)5-13(28)22-15-17(31)27-16(19(32)33)12(8-34-18(15)27)9-35-20-23-24-25-26(20)7-14(29)30/h1-4,15,18H,5-9,21H2,(H,22,28)(H,29,30)(H,32,33)/t15-,18-/m1/s1

> <INCHIKEY>
SLAYUXIURFNXPG-CRAIPNDOSA-N

> <BEILSTEIN_REGISTRY_NUMBER>
5399626

> <CAS_REGISTRY_NUMBER>
60925-61-3

> <CHEMIDPLUS>
60925-61-3

> <DRUGBANK_ACCESSION>
DB00923

> <KEGG_COMPOUND_ACCESSION>
C06884

> <KEGG_DRUG_ACCESSION>
D00259

> <LINCS_ACCESSION>
LSM-2838

> <WIKIPEDIA_ACCESSION>
Ceforanide

$$$$

Ketcher 03021811292D 1   1.00000     0.00000     0

 36 39  0     1  0            999 V2000
   18.1416  -13.4428    0.0000 C   0  0  0  0  0  0  0  0  0  0  0  0
   18.1416  -14.4424    0.0000 N   0  0  0  0  0  0  0  0  0  0  0  0
   18.9912  -14.9422    0.0000 C   0  0  0  0  0  0  0  0  0  0  0  0
   19.8409  -14.4424    0.0000 C   0  0  0  0  0  0  0  0  0  0  0  0
   19.8409  -13.4428    0.0000 C   0  0  0  0  0  0  0  0  0  0  0  0
   18.9912  -12.9429    0.0000 S   0  0  0  0  0  0  0  0  0  0  0  0
   17.1419  -13.4428    0.0000 C   0  0  0  0  0  0  0  0  0  0  0  0
   17.1419  -14.4424    0.0000 C   0  0  0  0  0  0  0  0  0  0  0  0
   16.2422  -12.9429    0.0000 N   0  0  0  0  0  0  0  0  0  0  0  0
   15.3926  -13.4428    0.0000 C   0  0  0  0  0  0  0  0  0  0  0  0
   15.3926  -14.4424    0.0000 O   0  0  0  0  0  0  0  0  0  0  0  0
   16.2422  -14.9422    0.0000 O   0  0  0  0  0  0  0  0  0  0  0  0
   14.5429  -12.9429    0.0000 C   0  0  0  0  0  0  0  0  0  0  0  0
   20.7406  -14.9422    0.0000 C   0  0  0  0  0  0  0  0  0  0  0  0
   13.6432  -13.4428    0.0000 C   0  0  0  0  0  0  0  0  0  0  0  0
   18.1416  -12.4431    0.0000 H   0  0  0  0  0  0  0  0  0  0  0  0
   21.5903  -14.4424    0.0000 N   0  0  0  0  0  0  0  0  0  0  0  0
   12.8936  -12.8429    0.0000 C   0  0  0  0  0  0  0  0  0  0  0  0
   12.0439  -13.3928    0.0000 S   0  0  0  0  0  0  0  0  0  0  0  0
   12.3439  -14.3924    0.0000 C   0  0  0  0  0  0  0  0  0  0  0  0
   13.3434  -14.3924    0.0000 N   0  0  0  0  0  0  0  0  0  0  0  0
   14.5429  -11.9433    0.0000 N   0  0  0  0  0  0  0  0  0  0  0  0
   18.9912  -15.9418    0.0000 C   0  0  0  0  0  0  0  0  0  0  0  0
   19.8409  -16.4416    0.0000 O   0  0  0  0  0  0  0  0  0  0  0  0
   18.0916  -16.4416    0.0000 O   0  0  0  0  0  0  0  0  0  0  0  0
   11.7441  -15.1920    0.0000 N   0  0  0  0  0  0  0  0  0  0  0  0
   22.4113  -15.0157    0.0000 N   0  0  0  0  0  0  0  0  0  0  0  0
   23.2110  -14.4140    0.0000 C   0  0  0  0  0  0  0  0  0  0  0  0
   22.8859  -13.4674    0.0000 C   0  0  0  0  0  0  0  0  0  0  0  0
   21.8852  -13.4841    0.0000 C   0  0  0  0  0  0  0  0  0  0  0  0
   24.1634  -14.7058    0.0000 N   0  0  0  0  0  0  0  0  0  0  0  0
   22.3789  -16.0116    0.0000 C   0  0  0  0  0  0  0  0  0  0  0  0
   23.2371  -16.4873    0.0000 C   0  0  0  0  0  0  0  0  0  0  0  0
   24.0981  -15.9698    0.0000 O   0  0  0  0  0  0  0  0  0  0  0  0
   15.4085  -11.4482    0.0000 O   0  0  0  0  0  0  0  0  0  0  0  0
   16.2541  -11.9411    0.0000 C   0  0  0  0  0  0  0  0  0  0  0  0
  1  2  1  0     0  0
  2  3  1  0     0  0
  3  4  2  0     0  0
  4  5  1  0     0  0
  5  6  1  0     0  0
  1  6  1  0     0  0
  1  7  1  0     0  0
  7  8  1  0     0  0
  2  8  1  0     0  0
  7  9  1  1     0  0
  9 10  1  0     0  0
 10 11  2  0     0  0
  8 12  2  0     0  0
 10 13  1  0     0  0
  4 14  1  0     0  0
 13 15  1  0     0  0
  1 16  1  6     0  0
 14 17  1  0     0  0
 15 18  2  0     0  0
 18 19  1  0     0  0
 19 20  1  0     0  0
 20 21  2  0     0  0
 15 21  1  0     0  0
 13 22  2  0     0  0
  3 23  1  0     0  0
 23 24  1  0     0  0
 23 25  2  0     0  0
 20 26  1  0     0  0
 17 27  1  0     0  0
 27 28  1  0     0  0
 28 29  1  0     0  0
 29 30  2  0     0  0
 17 30  1  0     0  0
 28 31  2  0     0  0
 27 32  1  0     0  0
 32 33  1  0     0  0
 33 34  1  0     0  0
 22 35  1  0     0  0
 35 36  1  0     0  0
M  END
> <ID>
CHEBI:3496

> <NAME>
cefoselis

> <DEFINITION>
A cephalosporin compound having [2-(2-hydroxyethyl)-3-imino-2,3-dihydro-1H-pyrazol-1-yl]methyl and [(2Z)-2-(2-amino-1,3-thiazol-4-yl)-2-(methoxyimino)acetyl]amino side groups located at positions 3 and 7 respectively. A 4th generation broad-spectrum cephalosporin.

> <STAR>
3

> <SYNONYM>
wincef; Cefoselis; (6R,7R)-7-{[(2Z)-2-(2-amino-1,3-thiazol-4-yl)-2-(methoxyimino)acetyl]amino}-3-{[2-(2-hydroxyethyl)-3-imino-2,3-dihydro-1H-pyrazol-1-yl]methyl}-8-oxo-5-thia-1-azabicyclo[4.2.0]oct-2-ene-2-carboxylic acid

> <IUPAC_NAME>
7-{[(2Z)-2-(2-amino-1,3-thiazol-4-yl)-2-(methoxyimino)acetyl]amino}-3-{[2-(2-hydroxyethyl)-3-imino-2,3-dihydro-1H-pyrazol-1-yl]methyl}-3,4-didehydrocepham-4-carboxylic acid

> <INN>
cefoselisum; cefoselis; cefoselis; cefoselis

> <FORMULA>
C19H22N8O6S2

> <MASS>
522.561

> <MONOISOTOPIC_MASS>
522.11037

> <CHARGE>
0

> <SMILES>
[C@]12(N(C(=C(CS1)CN3N(C(C=C3)=N)CCO)C(O)=O)C([C@H]2NC(=O)/C(/C4=CSC(=N4)N)=N\OC)=O)[H]

> <INCHI>
InChI=1S/C19H22N8O6S2/c1-33-24-12(10-8-35-19(21)22-10)15(29)23-13-16(30)27-14(18(31)32)9(7-34-17(13)27)6-25-3-2-11(20)26(25)4-5-28/h2-3,8,13,17,20,28H,4-7H2,1H3,(H2,21,22)(H,23,29)(H,31,32)/b20-11?,24-12-/t13-,17-/m1/s1

> <INCHIKEY>
ZINFAXPQMLDEEJ-GFVOIPPFSA-N

> <CAS_REGISTRY_NUMBER>
122841-10-5

> <CHEMIDPLUS>
122841-10-5

> <KEGG_COMPOUND_ACCESSION>
C11210

> <KEGG_DRUG_ACCESSION>
D07646

> <WIKIPEDIA_ACCESSION>
Cefoselis

> <PUBMED_CITATION>
10729661; 11211699; 11815378; 11866715; 25027339; 29017833

$$$$

Ketcher 03071809502D 1   1.00000     0.00000     0

 36 40  0     1  0            999 V2000
   18.1767  -13.9290    0.0000 C   0  0  0  0  0  0  0  0  0  0  0  0
   18.1767  -14.9235    0.0000 N   0  0  0  0  0  0  0  0  0  0  0  0
   19.0220  -15.4208    0.0000 C   0  0  0  0  0  0  0  0  0  0  0  0
   19.8674  -14.9235    0.0000 C   0  0  0  0  0  0  0  0  0  0  0  0
   19.8674  -13.9290    0.0000 C   0  0  0  0  0  0  0  0  0  0  0  0
   19.0220  -13.4317    0.0000 S   0  0  0  0  0  0  0  0  0  0  0  0
   17.1821  -13.9290    0.0000 C   0  0  0  0  0  0  0  0  0  0  0  0
   17.1821  -14.9235    0.0000 C   0  0  0  0  0  0  0  0  0  0  0  0
   16.2870  -13.4317    0.0000 N   0  0  0  0  0  0  0  0  0  0  0  0
   15.4417  -13.9290    0.0000 C   0  0  0  0  0  0  0  0  0  0  0  0
   15.4417  -14.9235    0.0000 O   0  0  0  0  0  0  0  0  0  0  0  0
   16.2870  -15.4208    0.0000 O   0  0  0  0  0  0  0  0  0  0  0  0
   14.5963  -13.4317    0.0000 C   0  0  0  0  0  0  0  0  0  0  0  0
   20.7625  -15.4208    0.0000 C   0  0  0  0  0  0  0  0  0  0  0  0
   13.7012  -13.9290    0.0000 C   0  0  0  0  0  0  0  0  0  0  0  0
   18.1767  -12.9344    0.0000 H   0  0  0  0  0  0  0  0  0  0  0  0
   21.6079  -14.9235    0.0000 N   0  0  0  0  0  0  0  0  0  0  0  0
   12.9553  -13.3322    0.0000 N   0  0  0  0  0  0  0  0  0  0  0  0
   12.1100  -13.8792    0.0000 S   0  0  0  0  0  0  0  0  0  0  0  0
   12.4083  -14.8737    0.0000 C   0  0  0  0  0  0  0  0  0  0  0  0
   13.4027  -14.8737    0.0000 N   0  0  0  0  0  0  0  0  0  0  0  0
   14.5963  -12.4370    0.0000 N   0  0  0  0  0  0  0  0  0  0  0  0
   19.0220  -16.4153    0.0000 C   0  0  0  0  0  0  0  0  0  0  0  0
   19.8674  -16.9127    0.0000 O   0  0  0  0  0  0  0  0  0  0  0  0
   18.1269  -16.9127    0.0000 O   0  0  0  0  0  0  0  0  0  0  0  0
   11.8116  -15.6694    0.0000 N   0  0  0  0  0  0  0  0  0  0  0  0
   22.4248  -15.4940    0.0000 C   0  0  0  0  0  0  0  0  0  0  0  0
   23.2206  -14.8952    0.0000 N   0  0  0  0  0  0  0  0  0  0  0  0
   22.8971  -13.9535    0.0000 C   0  0  0  0  0  0  0  0  0  0  0  0
   21.9014  -13.9701    0.0000 C   0  0  0  0  0  0  0  0  0  0  0  0
   22.4248  -16.4882    0.0000 C   0  0  0  0  0  0  0  0  0  0  0  0
   23.2775  -16.9812    0.0000 C   0  0  0  0  0  0  0  0  0  0  0  0
   24.1610  -16.4718    0.0000 C   0  0  0  0  0  0  0  0  0  0  0  0
   24.1610  -15.4775    0.0000 N   0  0  0  0  0  0  0  0  0  0  0  0
   15.4850  -11.9288    0.0000 O   0  0  0  0  0  0  0  0  0  0  0  0
   15.4850  -10.9309    0.0000 C   0  0  0  0  0  0  0  0  0  0  0  0
  1  2  1  0     0  0
  2  3  1  0     0  0
  3  4  2  0     0  0
  4  5  1  0     0  0
  5  6  1  0     0  0
  1  6  1  0     0  0
  1  7  1  0     0  0
  7  8  1  0     0  0
  2  8  1  0     0  0
  7  9  1  1     0  0
  9 10  1  0     0  0
 10 11  2  0     0  0
  8 12  2  0     0  0
 10 13  1  0     0  0
  4 14  1  0     0  0
 13 15  1  0     0  0
  1 16  1  6     0  0
 14 17  1  0     0  0
 15 18  2  0     0  0
 18 19  1  0     0  0
 19 20  1  0     0  0
 20 21  2  0     0  0
 15 21  1  0     0  0
 13 22  2  0     0  0
  3 23  1  0     0  0
 23 24  1  0     0  0
 23 25  2  0     0  0
 20 26  1  0     0  0
 17 27  2  0     0  0
 27 28  1  0     0  0
 28 29  1  0     0  0
 29 30  2  0     0  0
 17 30  1  0     0  0
 27 31  1  0     0  0
 31 32  2  0     0  0
 32 33  1  0     0  0
 33 34  2  0     0  0
 34 28  1  0     0  0
 22 35  1  0     0  0
 35 36  1  0     0  0
M  CHG  2  17   1  24  -1
M  END
> <ID>
CHEBI:3502

> <NAME>
cefozopran

> <DEFINITION>
A fourth-generation cephalosporin antibiotic having imidazo[1,2-b]pyridazin-1-ium-1-ylmethyl and [(2Z)-2-(2-amino-1,3-thiazol-4-yl)-2-(methoxyimino)acetyl]amino side groups located at positions 3 and 7 respectively.

> <STAR>
3

> <SYNONYM>
(6R,7R)-7-{[(2Z)-2-(5-amino-1,2,4-thiadiazol-3-yl)-2-(methoxyimino)acetyl]amino}-3-(imidazo[1,2-b]pyridazin-1-ium-1-ylmethyl)-8-oxo-5-thia-1-azabicyclo[4.2.0]oct-2-ene-2-carboxylate

> <IUPAC_NAME>
7-{[(2Z)-2-(2-amino-1,3-thiazol-4-yl)-2-(methoxyimino)acetyl]amino}-3-(imidazo[1,2-b]pyridazin-1-ium-1-ylmethyl)-3,4-didehydrocepham-4-carboxylate

> <INN>
cefozopranum; cefozopran; cefozopran; cefozopran

> <FORMULA>
C19H17N9O5S2

> <MASS>
515.528

> <MONOISOTOPIC_MASS>
515.07941

> <CHARGE>
0

> <SMILES>
[C@]12(N(C(=C(CS1)C[N+]3=C4N(C=C3)N=CC=C4)C([O-])=O)C([C@H]2NC(=O)/C(/C5=NSC(=N5)N)=N\OC)=O)[H]

> <INCHI>
InChI=1S/C19H17N9O5S2/c1-33-24-11(14-23-19(20)35-25-14)15(29)22-12-16(30)28-13(18(31)32)9(8-34-17(12)28)7-26-5-6-27-10(26)3-2-4-21-27/h2-6,12,17H,7-8H2,1H3,(H3-,20,22,23,25,29,31,32)/b24-11-/t12-,17-/m1/s1

> <INCHIKEY>
QDUIJCOKQCCXQY-WHJQOFBOSA-N

> <CAS_REGISTRY_NUMBER>
113359-04-9

> <KEGG_DRUG_ACCESSION>
D01052

> <WIKIPEDIA_ACCESSION>
Cefozopran

> <PUBMED_CITATION>
22888513; 25644122; 29017833

$$$$

Ketcher 03051817502D 1   1.00000     0.00000     0

 36 40  0     1  0            999 V2000
   17.8937  -12.8132    0.0000 C   0  0  0  0  0  0  0  0  0  0  0  0
   17.8937  -13.8107    0.0000 N   0  0  0  0  0  0  0  0  0  0  0  0
   18.7415  -14.3094    0.0000 C   0  0  0  0  0  0  0  0  0  0  0  0
   19.5895  -13.8107    0.0000 C   0  0  0  0  0  0  0  0  0  0  0  0
   19.5895  -12.8132    0.0000 C   0  0  0  0  0  0  0  0  0  0  0  0
   18.7415  -12.3144    0.0000 S   0  0  0  0  0  0  0  0  0  0  0  0
   16.8960  -12.8132    0.0000 C   0  0  0  0  0  0  0  0  0  0  0  0
   16.8960  -13.8107    0.0000 C   0  0  0  0  0  0  0  0  0  0  0  0
   15.9982  -12.3144    0.0000 N   0  0  0  0  0  0  0  0  0  0  0  0
   15.1504  -12.8132    0.0000 C   0  0  0  0  0  0  0  0  0  0  0  0
   15.1504  -13.8107    0.0000 O   0  0  0  0  0  0  0  0  0  0  0  0
   15.9982  -14.3094    0.0000 O   0  0  0  0  0  0  0  0  0  0  0  0
   14.3024  -12.3144    0.0000 C   0  0  0  0  0  0  0  0  0  0  0  0
   20.4873  -14.3094    0.0000 C   0  0  0  0  0  0  0  0  0  0  0  0
   13.4047  -12.8132    0.0000 C   0  0  0  0  0  0  0  0  0  0  0  0
   17.8937  -11.8155    0.0000 H   0  0  0  0  0  0  0  0  0  0  0  0
   21.3353  -13.8107    0.0000 N   0  0  0  0  0  0  0  0  0  0  0  0
   12.6565  -12.2145    0.0000 C   0  0  0  0  0  0  0  0  0  0  0  0
   11.8086  -12.7633    0.0000 S   0  0  0  0  0  0  0  0  0  0  0  0
   12.1078  -13.7607    0.0000 C   0  0  0  0  0  0  0  0  0  0  0  0
   13.1053  -13.7607    0.0000 N   0  0  0  0  0  0  0  0  0  0  0  0
   14.3024  -11.3167    0.0000 N   0  0  0  0  0  0  0  0  0  0  0  0
   18.7415  -15.3070    0.0000 C   0  0  0  0  0  0  0  0  0  0  0  0
   19.5895  -15.8059    0.0000 O   0  0  0  0  0  0  0  0  0  0  0  0
   17.8438  -15.8059    0.0000 O   0  0  0  0  0  0  0  0  0  0  0  0
   11.5093  -14.5588    0.0000 N   0  0  0  0  0  0  0  0  0  0  0  0
   22.2021  -14.3112    0.0000 C   0  0  0  0  0  0  0  0  0  0  0  0
   23.0688  -13.8107    0.0000 C   0  0  0  0  0  0  0  0  0  0  0  0
   23.0688  -12.8098    0.0000 C   0  0  0  0  0  0  0  0  0  0  0  0
   22.2021  -12.3093    0.0000 C   0  0  0  0  0  0  0  0  0  0  0  0
   21.3353  -12.8098    0.0000 C   0  0  0  0  0  0  0  0  0  0  0  0
   21.9940  -11.3304    0.0000 C   0  0  0  0  0  0  0  0  0  0  0  0
   20.9985  -11.2257    0.0000 C   0  0  0  0  0  0  0  0  0  0  0  0
   20.5915  -12.1401    0.0000 C   0  0  0  0  0  0  0  0  0  0  0  0
   15.1799  -10.8144    0.0000 O   0  0  0  0  0  0  0  0  0  0  0  0
   15.1799   -9.8161    0.0000 C   0  0  0  0  0  0  0  0  0  0  0  0
  1  2  1  0     0  0
  2  3  1  0     0  0
  3  4  2  0     0  0
  4  5  1  0     0  0
  5  6  1  0     0  0
  1  6  1  0     0  0
  1  7  1  0     0  0
  7  8  1  0     0  0
  2  8  1  0     0  0
  7  9  1  1     0  0
  9 10  1  0     0  0
 10 11  2  0     0  0
  8 12  2  0     0  0
 10 13  1  0     0  0
  4 14  1  0     0  0
 13 15  1  0     0  0
  1 16  1  6     0  0
 14 17  1  0     0  0
 15 18  2  0     0  0
 18 19  1  0     0  0
 19 20  1  0     0  0
 20 21  2  0     0  0
 15 21  1  0     0  0
 13 22  2  0     0  0
  3 23  1  0     0  0
 23 24  1  0     0  0
 23 25  2  0     0  0
 20 26  1  0     0  0
 17 27  2  0     0  0
 27 28  1  0     0  0
 28 29  2  0     0  0
 29 30  1  0     0  0
 30 31  2  0     0  0
 17 31  1  0     0  0
 30 32  1  0     0  0
 32 33  1  0     0  0
 33 34  1  0     0  0
 31 34  1  0     0  0
 22 35  1  0     0  0
 35 36  1  0     0  0
M  CHG  2  17   1  24  -1
M  END
> <ID>
CHEBI:3503

> <NAME>
cefpirome

> <DEFINITION>
A fourth-generation cephalosporin antibiotic having 6,7-dihydro-5H-cyclopenta[b]pyridinium-1-ylmethyl and [(2Z)-2-(2-amino-1,3-thiazol-4-yl)-2-(methoxyimino)acetyl]amino side groups located at positions 3 and 7 respectively.

> <STAR>
3

> <SYNONYM>
HR 810; cefrom; Cefpirome; (6R,7R)-7-{[(2Z)-2-(2-amino-1,3-thiazol-4-yl)-2-(methoxyimino)acetyl]amino}-3-(6,7-dihydro-5H-cyclopenta[b]pyridinium-1-ylmethyl)-8-oxo-5-thia-1-azabicyclo[4.2.0]oct-2-ene-2-carboxylate

> <IUPAC_NAME>
7-{[(2Z)-2-(2-amino-1,3-thiazol-4-yl)-2-(methoxyimino)acetyl]amino}-3-(6,7-dihydro-5H-cyclopenta[b]pyridinium-1-ylmethyl)-3,4-didehydrocepham-4-carboxylic acid

> <INN>
cefpiromum; cefpirome; cefpiroma

> <FORMULA>
C22H22N6O5S2

> <MASS>
514.580

> <MONOISOTOPIC_MASS>
514.10931

> <CHARGE>
0

> <SMILES>
[C@]12(N(C(=C(CS1)C[N+]3=CC=CC4=C3CCC4)C([O-])=O)C([C@H]2NC(=O)/C(/C5=CSC(=N5)N)=N\OC)=O)[H]

> <INCHI>
InChI=1S/C22H22N6O5S2/c1-33-26-15(13-10-35-22(23)24-13)18(29)25-16-19(30)28-17(21(31)32)12(9-34-20(16)28)8-27-7-3-5-11-4-2-6-14(11)27/h3,5,7,10,16,20H,2,4,6,8-9H2,1H3,(H3-,23,24,25,29,31,32)/b26-15-/t16-,20-/m1/s1

> <INCHIKEY>
DKOQGJHPHLTOJR-WHRDSVKCSA-N

> <CAS_REGISTRY_NUMBER>
84957-29-9

> <REAXYS_REGISTRY_NUMBER>
4241500

> <CHEMIDPLUS>
84957-29-9

> <KEGG_COMPOUND_ACCESSION>
C11199

> <KEGG_DRUG_ACCESSION>
D07649

> <WIKIPEDIA_ACCESSION>
Cefpirome

> <PUBMED_CITATION>
1287135; 26004702; 26870331; 29017833

$$$$

Marvin  05071011102D          

 29 31  0  0  1  0            999 V2000
   16.3991  -11.9695    0.0000 C   0  0  0  0  0  0  0  0  0  0  0  0
   16.3991  -10.6395    0.0000 C   0  0  0  0  0  0  0  0  0  0  0  0
   15.2472   -9.9745    0.0000 S   0  0  0  0  0  0  0  0  0  0  0  0
   15.2472  -12.6345    0.0000 C   0  0  0  0  0  0  0  0  0  0  0  0
   14.0954  -11.9695    0.0000 N   0  0  0  0  0  0  0  0  0  0  0  0
   14.0954  -10.6395    0.0000 C   0  0  0  0  0  0  0  0  0  0  0  0
   12.7653  -10.6395    0.0000 C   0  0  0  0  0  0  0  0  0  0  0  0
   12.7653  -11.9695    0.0000 C   0  0  0  0  0  0  0  0  0  0  0  0
   11.6135   -9.9745    0.0000 N   0  0  0  0  0  0  0  0  0  0  0  0
   10.4617  -10.6395    0.0000 C   0  0  0  0  0  0  0  0  0  0  0  0
    9.3098   -9.9745    0.0000 C   0  0  0  0  0  0  0  0  0  0  0  0
   10.4617  -11.9695    0.0000 O   0  0  0  0  0  0  0  0  0  0  0  0
    9.3098   -8.6444    0.0000 N   0  0  0  0  0  0  0  0  0  0  0  0
    8.1580  -10.6395    0.0000 C   0  0  0  0  0  0  0  0  0  0  0  0
   10.4617   -7.9794    0.0000 O   0  0  0  0  0  0  0  0  0  0  0  0
   10.4617   -6.6494    0.0000 C   0  0  0  0  0  0  0  0  0  0  0  0
   15.2472  -13.9646    0.0000 C   0  0  0  0  0  0  0  0  0  0  0  0
   16.3991  -14.6296    0.0000 O   0  0  0  0  0  0  0  0  0  0  0  0
   14.0954  -14.6296    0.0000 O   0  0  0  0  0  0  0  0  0  0  0  0
    8.0189  -11.9622    0.0000 C   0  0  0  0  0  0  0  0  0  0  0  0
    6.7180  -12.2388    0.0000 S   0  0  0  0  0  0  0  0  0  0  0  0
    6.0529  -11.0869    0.0000 C   0  0  0  0  0  0  0  0  0  0  0  0
    6.9429  -10.0985    0.0000 N   0  0  0  0  0  0  0  0  0  0  0  0
    4.7302  -10.9479    0.0000 N   0  0  0  0  0  0  0  0  0  0  0  0
   14.1189   -9.3905    0.0000 H   0  0  0  0  0  0  0  0  0  0  0  0
   17.5509  -12.6345    0.0000 C   0  0  0  0  0  0  0  0  0  0  0  0
   18.7028  -11.9695    0.0000 O   0  0  0  0  0  0  0  0  0  0  0  0
   19.8546  -12.6345    0.0000 C   0  0  0  0  0  0  0  0  0  0  0  0
   11.6135  -12.6345    0.0000 O   0  0  0  0  0  0  0  0  0  0  0  0
 11 14  1  0  0  0  0
  2  3  1  0  0  0  0
 13 15  1  0  0  0  0
  6  7  1  0  0  0  0
 15 16  1  0  0  0  0
  7  8  1  0  0  0  0
  4 17  1  0  0  0  0
  8  5  1  0  0  0  0
 17 18  1  0  0  0  0
  3  6  1  0  0  0  0
 17 19  2  0  0  0  0
 14 20  2  0  0  0  0
  7  9  1  1  0  0  0
  5  4  1  0  0  0  0
  9 10  1  0  0  0  0
  5  6  1  0  0  0  0
 20 21  1  0  0  0  0
 21 22  1  0  0  0  0
 22 23  2  0  0  0  0
 23 14  1  0  0  0  0
 10 11  1  0  0  0  0
 22 24  1  0  0  0  0
  6 25  1  6  0  0  0
 10 12  2  0  0  0  0
  1 26  1  0  0  0  0
  1  2  1  0  0  0  0
 26 27  1  0  0  0  0
 11 13  2  0  0  0  0
 27 28  1  0  0  0  0
  1  4  2  0  0  0  0
  8 29  2  0  0  0  0
M  END
> <ID>
CHEBI:3504

> <NAME>
cefpodoxime

> <DEFINITION>
A third-generation cephalosporin antibiotic with methoxymethyl and (2Z)-2-(2-amino-1,3-thiazol-4-yl)-2-(methoxyimino)acetamino substituents at positions 3 and 7, respectively, of the cephem skeleton. Given by mouth as its proxetil ester prodrug, it is used to treat acute otitis media, pharyngitis, and sinusitis.

> <STAR>
3

> <SECONDARY_ID>
CHEBI:606443

> <SYNONYM>
(6R,7R)-7-{[(2Z)-2-(2-amino-1,3-thiazol-4-yl)-2-(methoxyimino)acetyl]amino}-3-(methoxymethyl)-8-oxo-5-thia-1-azabicyclo[4.2.0]oct-2-ene-2-carboxylic acid

> <IUPAC_NAME>
7beta-[(2Z)-2-(2-amino-1,3-thiazol-4-yl)-2-(methoxyimino)acetamido]-3-(methoxymethyl)-3,4-didehydrocepham-4-carboxylic acid

> <INN>
cefpodoximum; cefpodoxime; cefpodoxima

> <FORMULA>
C15H17N5O6S2

> <MASS>
427.45500

> <MONOISOTOPIC_MASS>
427.06203

> <CHARGE>
0

> <SMILES>
[H][C@]12SCC(COC)=C(N1C(=O)[C@H]2NC(=O)C(=N/OC)\c1csc(N)n1)C(O)=O

> <INCHI>
InChI=1S/C15H17N5O6S2/c1-25-3-6-4-27-13-9(12(22)20(13)10(6)14(23)24)18-11(21)8(19-26-2)7-5-28-15(16)17-7/h5,9,13H,3-4H2,1-2H3,(H2,16,17)(H,18,21)(H,23,24)/b19-8-/t9-,13-/m1/s1

> <INCHIKEY>
WYUSVOMTXWRGEK-HBWVYFAYSA-N

> <BEILSTEIN_REGISTRY_NUMBER>
6021381

> <CAS_REGISTRY_NUMBER>
80210-62-4

> <REAXYS_REGISTRY_NUMBER>
6021381

> <CHEMIDPLUS>
80210-62-4

> <DRUGBANK_ACCESSION>
DB01416

> <KEGG_COMPOUND_ACCESSION>
C08114

> <KEGG_DRUG_ACCESSION>
D07650

> <WIKIPEDIA_ACCESSION>
Cefpodoxime

> <PUBMED_CITATION>
20606336; 20821175; 21395603; 21420838; 21455420; 21509928; 21569093; 21667000; 29017833

$$$$

Marvin  05071012202D          

 38 40  0  0  1  0            999 V2000
   16.3991  -11.9695    0.0000 C   0  0  0  0  0  0  0  0  0  0  0  0
   16.3991  -10.6395    0.0000 C   0  0  0  0  0  0  0  0  0  0  0  0
   15.2472   -9.9745    0.0000 S   0  0  0  0  0  0  0  0  0  0  0  0
   15.2472  -12.6345    0.0000 C   0  0  0  0  0  0  0  0  0  0  0  0
   14.0954  -11.9695    0.0000 N   0  0  0  0  0  0  0  0  0  0  0  0
   14.0954  -10.6395    0.0000 C   0  0  0  0  0  0  0  0  0  0  0  0
   12.7653  -10.6395    0.0000 C   0  0  0  0  0  0  0  0  0  0  0  0
   12.7653  -11.9695    0.0000 C   0  0  0  0  0  0  0  0  0  0  0  0
   11.6135   -9.9745    0.0000 N   0  0  0  0  0  0  0  0  0  0  0  0
   10.4617  -10.6395    0.0000 C   0  0  0  0  0  0  0  0  0  0  0  0
    9.3098   -9.9745    0.0000 C   0  0  0  0  0  0  0  0  0  0  0  0
   10.4617  -11.9695    0.0000 O   0  0  0  0  0  0  0  0  0  0  0  0
    9.3098   -8.6444    0.0000 N   0  0  0  0  0  0  0  0  0  0  0  0
    8.1580  -10.6395    0.0000 C   0  0  0  0  0  0  0  0  0  0  0  0
   10.4617   -7.9794    0.0000 O   0  0  0  0  0  0  0  0  0  0  0  0
   10.4617   -6.6494    0.0000 C   0  0  0  0  0  0  0  0  0  0  0  0
   15.2472  -13.9646    0.0000 C   0  0  0  0  0  0  0  0  0  0  0  0
   16.3991  -14.6296    0.0000 O   0  0  0  0  0  0  0  0  0  0  0  0
   14.0954  -14.6296    0.0000 O   0  0  0  0  0  0  0  0  0  0  0  0
    8.0189  -11.9622    0.0000 C   0  0  0  0  0  0  0  0  0  0  0  0
    6.7180  -12.2388    0.0000 S   0  0  0  0  0  0  0  0  0  0  0  0
    6.0529  -11.0869    0.0000 C   0  0  0  0  0  0  0  0  0  0  0  0
    6.9429  -10.0985    0.0000 N   0  0  0  0  0  0  0  0  0  0  0  0
    4.7302  -10.9479    0.0000 N   0  0  0  0  0  0  0  0  0  0  0  0
   14.1189   -9.3905    0.0000 H   0  0  0  0  0  0  0  0  0  0  0  0
   17.5509  -12.6345    0.0000 C   0  0  0  0  0  0  0  0  0  0  0  0
   18.7028  -11.9695    0.0000 O   0  0  0  0  0  0  0  0  0  0  0  0
   19.8546  -12.6345    0.0000 C   0  0  0  0  0  0  0  0  0  0  0  0
   11.6135  -12.6345    0.0000 O   0  0  0  0  0  0  0  0  0  0  0  0
   16.3927  -15.9600    0.0000 C   0  0  0  0  0  0  0  0  0  0  0  0
   17.5412  -16.6306    0.0000 O   0  0  0  0  0  0  0  0  0  0  0  0
   15.2376  -16.6194    0.0000 C   0  0  0  0  0  0  0  0  0  0  0  0
   18.7001  -15.9600    0.0000 C   0  0  0  0  0  0  0  0  0  0  0  0
   19.8539  -16.6330    0.0000 O   0  0  0  0  0  0  0  0  0  0  0  0
   18.7001  -14.6300    0.0000 O   0  0  0  0  0  0  0  0  0  0  0  0
   21.0076  -15.9760    0.0000 C   0  0  0  0  0  0  0  0  0  0  0  0
   22.1554  -16.6479    0.0000 C   0  0  0  0  0  0  0  0  0  0  0  0
   21.0155  -14.6460    0.0000 C   0  0  0  0  0  0  0  0  0  0  0  0
 11 14  1  0  0  0  0
  2  3  1  0  0  0  0
 13 15  1  0  0  0  0
  6  7  1  0  0  0  0
 15 16  1  0  0  0  0
  7  8  1  0  0  0  0
  4 17  1  0  0  0  0
  8  5  1  0  0  0  0
 17 18  1  0  0  0  0
  3  6  1  0  0  0  0
 17 19  2  0  0  0  0
 14 20  2  0  0  0  0
  7  9  1  1  0  0  0
  5  4  1  0  0  0  0
  9 10  1  0  0  0  0
  5  6  1  0  0  0  0
 20 21  1  0  0  0  0
 21 22  1  0  0  0  0
 22 23  2  0  0  0  0
 23 14  1  0  0  0  0
 10 11  1  0  0  0  0
 22 24  1  0  0  0  0
  6 25  1  6  0  0  0
 10 12  2  0  0  0  0
  1 26  1  0  0  0  0
  1  2  1  0  0  0  0
 26 27  1  0  0  0  0
 11 13  2  0  0  0  0
 27 28  1  0  0  0  0
  1  4  2  0  0  0  0
  8 29  2  0  0  0  0
 18 30  1  0  0  0  0
 30 31  1  0  0  0  0
 30 32  1  0  0  0  0
 31 33  1  0  0  0  0
 33 34  1  0  0  0  0
 33 35  2  0  0  0  0
 34 36  1  0  0  0  0
 36 37  1  0  0  0  0
 36 38  1  0  0  0  0
M  END
> <ID>
CHEBI:3505

> <NAME>
cefpodoxime proxetil

> <DEFINITION>
The 1-[(isopropoxycarbonyl)oxy]ethyl (proxetil) ester prodrug of cefpodoxime. After swallowing, hydrolysis of the ester group occurs in the intestinal epithelium, to release active cefpodoxime in the bloodstream. It is used to treat acute otitis media, pharyngitis, and sinusitis.

> <STAR>
3

> <SYNONYM>
cefpodoxime 1-(isopropyloxycarbonyloxy)ethyl ester; (RS)-1-((isopropoxycarbonyl)oxy)ethyl (+)-(6R,7R)-7-(2-(2-amino-4-thiazolyl)-2-((Z)-methoxyimino)acetamido)-3-(methoxymethyl)-8-oxo-5-thia-1-azabicyclo(4.2.0)oct-2-ene-2-carboxylate

> <IUPAC_NAME>
1-{[(propan-2-yloxy)carbonyl]oxy}ethyl 7beta-[(2Z)-2-(2-amino-1,3-thiazol-4-yl)-2-(methoxyimino)acetamido]-3-(methoxymethyl)-3,4-didehydrocepham-4-carboxylate; 1-{[(propan-2-yloxy)carbonyl]oxy}ethyl (6R,7R)-7-{[(2Z)-2-(2-amino-1,3-thiazol-4-yl)-2-(methoxyimino)acetyl]amino}-3-(methoxymethyl)-8-oxo-5-thia-1-azabicyclo[4.2.0]oct-2-ene-2-carboxylate

> <FORMULA>
C21H27N5O9S2

> <MASS>
557.59700

> <MONOISOTOPIC_MASS>
557.12502

> <CHARGE>
0

> <SMILES>
[H][C@]12SCC(COC)=C(N1C(=O)[C@H]2NC(=O)C(=N/OC)\c1csc(N)n1)C(=O)OC(C)OC(=O)OC(C)C

> <INCHI>
InChI=1S/C21H27N5O9S2/c1-9(2)33-21(30)35-10(3)34-19(29)15-11(6-31-4)7-36-18-14(17(28)26(15)18)24-16(27)13(25-32-5)12-8-37-20(22)23-12/h8-10,14,18H,6-7H2,1-5H3,(H2,22,23)(H,24,27)/b25-13-/t10?,14-,18-/m1/s1

> <INCHIKEY>
LTINZAODLRIQIX-FBXRGJNPSA-N

> <BEILSTEIN_REGISTRY_NUMBER>
8174918

> <CAS_REGISTRY_NUMBER>
87239-81-4

> <CHEMIDPLUS>
87239-81-4

> <DRUGBANK_ACCESSION>
DB01416

> <KEGG_COMPOUND_ACCESSION>
C08115

> <KEGG_DRUG_ACCESSION>
D00920

$$$$

Marvin  04161016482D          

 29 31  0  0  1  0            999 V2000
   10.1921  -11.8458    0.0000 N   0  0  0  0  0  0  0  0  0  0  0  0
   10.1921  -10.5158    0.0000 C   0  0  0  0  0  0  0  0  0  0  0  0
   11.3439  -12.5108    0.0000 C   0  0  0  0  0  0  0  0  0  0  0  0
    8.8621  -11.8458    0.0000 C   0  0  0  0  0  0  0  0  0  0  0  0
    8.8621  -10.5158    0.0000 C   0  0  0  0  0  0  0  0  0  0  0  0
   11.3439   -9.8508    0.0000 S   0  0  0  0  0  0  0  0  0  0  0  0
   12.4957  -11.8458    0.0000 C   0  0  0  0  0  0  0  0  0  0  0  0
   11.3439  -13.8408    0.0000 C   0  0  0  0  0  0  0  0  0  0  0  0
    7.7103  -12.5108    0.0000 O   0  0  0  0  0  0  0  0  0  0  0  0
    7.7103   -9.8508    0.0000 N   0  0  0  0  0  0  0  0  0  0  0  0
   12.4957  -10.5158    0.0000 C   0  0  0  0  0  0  0  0  0  0  0  0
   13.6475  -12.5108    0.0000 C   0  0  0  0  0  0  0  0  0  0  0  0
   12.4957  -14.5058    0.0000 O   0  0  0  0  0  0  0  0  0  0  0  0
   10.1921  -14.5058    0.0000 O   0  0  0  0  0  0  0  0  0  0  0  0
    6.5584  -10.5158    0.0000 C   0  0  0  0  0  0  0  0  0  0  0  0
   14.7993  -11.8458    0.0000 C   0  0  0  0  0  0  0  0  0  0  0  0
    5.4066   -9.8508    0.0000 C   0  0  0  0  0  0  0  0  0  0  0  0
    6.5584  -11.8458    0.0000 O   0  0  0  0  0  0  0  0  0  0  0  0
    5.4066   -8.5208    0.0000 N   0  0  0  0  0  0  0  0  0  0  0  0
    8.8385   -9.2668    0.0000 H   0  0  0  0  0  0  0  0  0  0  0  0
   10.2156   -9.2668    0.0000 H   0  0  0  0  0  0  0  0  0  0  0  0
    4.2548  -10.5158    0.0000 C   0  0  0  0  0  0  0  0  0  0  0  0
    3.1030   -9.8508    0.0000 C   0  0  0  0  0  0  0  0  0  0  0  0
    4.2548  -11.8458    0.0000 C   0  0  0  0  0  0  0  0  0  0  0  0
    1.9512  -10.5158    0.0000 C   0  0  0  0  0  0  0  0  0  0  0  0
    3.1030  -12.5108    0.0000 C   0  0  0  0  0  0  0  0  0  0  0  0
    1.9512  -11.8458    0.0000 C   0  0  0  0  0  0  0  0  0  0  0  0
    0.7994  -12.5108    0.0000 O   0  0  0  0  0  0  0  0  0  0  0  0
   15.9511  -12.5108    0.0000 C   0  0  0  0  0  0  0  0  0  0  0  0
  2  1  1  0  0  0  0
  3  1  1  0  0  0  0
  4  1  1  0  0  0  0
  5  2  1  0  0  0  0
  6  2  1  0  0  0  0
  2 21  1  6  0  0  0
  7  3  2  0  0  0  0
  8  3  1  0  0  0  0
  9  4  2  0  0  0  0
  5  4  1  0  0  0  0
  5 10  1  0  0  0  0
  5 20  1  6  0  0  0
 11  6  1  0  0  0  0
 12  7  1  0  0  0  0
 11  7  1  0  0  0  0
 13  8  2  0  0  0  0
 14  8  1  0  0  0  0
 15 10  1  0  0  0  0
 16 12  2  0  0  0  0
 17 15  1  0  0  0  0
 18 15  2  0  0  0  0
 17 19  1  1  0  0  0
 22 17  1  0  0  0  0
 23 22  1  0  0  0  0
 24 22  2  0  0  0  0
 25 23  2  0  0  0  0
 26 24  1  0  0  0  0
 27 25  1  0  0  0  0
 27 26  2  0  0  0  0
 28 27  1  0  0  0  0
 16 29  1  4  0  0  0
M  END
> <ID>
CHEBI:3506

> <NAME>
cefprozil

> <DEFINITION>
A semisynthetic, second-generation cephalosporin, with prop-1-enyl and (R)-2-amino-2-(4-hydroxyphenyl)acetamido groups at positions 3 and 7, respectively, of the cephem skeleton. It is used to treat bronchitis as well as ear, skin and other bacterial infections.

> <STAR>
3

> <SYNONYM>
Cefprozil anhydrous

> <IUPAC_NAME>
(6R,7R)-7-{[(2R)-2-amino-2-(4-hydroxyphenyl)acetyl]amino}-8-oxo-3-(prop-1-en-1-yl)-5-thia-1-azabicyclo[4.2.0]oct-2-ene-2-carboxylic acid

> <INN>
cefprozilum; cefprozilo; cefprozil; cefprozil

> <BRAND_NAME>
Cefzil

> <FORMULA>
C18H19N3O5S

> <MASS>
389.42600

> <MONOISOTOPIC_MASS>
389.10454

> <CHARGE>
0

> <SMILES>
[H][C@]12SCC(C=CC)=C(N1C(=O)[C@@]2([H])NC(=O)[C@H](N)c1ccc(O)cc1)C(O)=O

> <INCHI>
InChI=1S/C18H19N3O5S/c1-2-3-10-8-27-17-13(16(24)21(17)14(10)18(25)26)20-15(23)12(19)9-4-6-11(22)7-5-9/h2-7,12-13,17,22H,8,19H2,1H3,(H,20,23)(H,25,26)/t12-,13-,17-/m1/s1

> <INCHIKEY>
WDLWHQDACQUCJR-PBFPGSCMSA-N

> <BEILSTEIN_REGISTRY_NUMBER>
8167198

> <CAS_REGISTRY_NUMBER>
92665-29-7

> <CHEMIDPLUS>
92665-29-7

> <DRUGBANK_ACCESSION>
DB01150

> <HMDB_ACCESSION>
HMDB0015281

> <KEGG_COMPOUND_ACCESSION>
C06888

> <KEGG_DRUG_ACCESSION>
D07651

> <WIKIPEDIA_ACCESSION>
Cefprozil

> <PUBMED_CITATION>
29017833

$$$$



37 40  0  0  1  0  0  0  0  0999 V2000
   23.1700  -18.2700    0.0000 C   0  0  0  0  0  0  0  0  0  0  0  0
   23.1700  -19.6700    0.0000 N   0  0  0  0  0  0  0  0  0  0  0  0
   24.3600  -20.3700    0.0000 C   0  0  0  0  0  0  0  0  0  0  0  0
   25.6200  -19.6700    0.0000 C   0  0  0  0  0  0  0  0  0  0  0  0
   25.6200  -18.2700    0.0000 C   0  0  0  0  0  0  0  0  0  0  0  0
   24.3600  -17.5700    0.0000 S   0  0  0  0  0  0  0  0  0  0  0  0
   21.7700  -18.2700    0.0000 C   0  0  0  0  0  0  0  0  0  0  0  0
   21.7700  -19.6700    0.0000 C   0  0  0  0  0  0  0  0  0  0  0  0
   20.5800  -17.5700    0.0000 N   0  0  0  0  0  0  0  0  0  0  0  0
   19.3200  -18.2700    0.0000 C   0  0  0  0  0  0  0  0  0  0  0  0
   19.3200  -19.6700    0.0000 O   0  0  0  0  0  0  0  0  0  0  0  0
   20.5800  -20.3700    0.0000 O   0  0  0  0  0  0  0  0  0  0  0  0
   18.1300  -17.5700    0.0000 C   0  0  0  0  0  0  0  0  0  0  0  0
   26.8100  -20.3700    0.0000 C   0  0  0  0  0  0  0  0  0  0  0  0
   24.3600  -21.7700    0.0000 C   0  0  0  0  0  0  0  0  0  0  0  0
   23.1700  -22.4700    0.0000 O   0  0  0  0  0  0  0  0  0  0  0  0
   25.5500  -22.4700    0.0000 O   0  5  0  0  0  0  0  0  0  0  0  0
   23.1700  -16.8700    0.0000 H   0  0  0  0  0  0  0  0  0  0  0  0
   28.0700  -19.6700    0.0000 N   0  3  0  0  0  0  0  0  0  0  0  0
   29.2600  -20.3700    0.0000 C   0  0  0  0  0  0  0  0  0  0  0  0
   30.4500  -19.6700    0.0000 C   0  0  0  0  0  0  0  0  0  0  0  0
   30.4500  -18.2700    0.0000 C   0  0  0  0  0  0  0  0  0  0  0  0
   29.2600  -17.5700    0.0000 C   0  0  0  0  0  0  0  0  0  0  0  0
   28.0700  -18.2700    0.0000 C   0  0  0  0  0  0  0  0  0  0  0  0
   31.6400  -17.5700    0.0000 C   0  0  0  0  0  0  0  0  0  0  0  0
   32.8300  -18.2700    0.0000 N   0  0  0  0  0  0  0  0  0  0  0  0
   31.6400  -16.1700    0.0000 O   0  0  0  0  0  0  0  0  0  0  0  0
   16.9400  -18.2700    0.0000 S   0  0  0  0  0  0  0  0  0  0  0  0
   18.1300  -16.1700    0.0000 C   0  0  0  0  0  0  0  0  0  0  0  0
   16.9400  -19.6700    0.0000 O   0  0  0  0  0  0  0  0  0  0  0  0
   16.9400  -16.8700    0.0000 O   0  0  0  0  0  0  0  0  0  0  0  0
   15.5400  -18.2700    0.0000 O   0  0  0  0  0  0  0  0  0  0  0  0
   19.3200  -15.4700    0.0000 C   0  0  0  0  0  0  0  0  0  0  0  0
   19.3200  -14.0700    0.0000 C   0  0  0  0  0  0  0  0  0  0  0  0
   18.1300  -13.3700    0.0000 C   0  0  0  0  0  0  0  0  0  0  0  0
   16.9400  -14.0700    0.0000 C   0  0  0  0  0  0  0  0  0  0  0  0
   16.9400  -15.4700    0.0000 C   0  0  0  0  0  0  0  0  0  0  0  0
  1  2  1  0     0  0
  2  3  1  0     0  0
  3  4  2  0     0  0
  4  5  1  0     0  0
  5  6  1  0     0  0
  1  6  1  0     0  0
  1  7  1  0     0  0
  7  8  1  0     0  0
  2  8  1  0     0  0
  7  9  1  1     0  0
  9 10  1  0     0  0
 10 11  2  0     0  0
  8 12  2  0     0  0
 10 13  1  0     0  0
  4 14  1  0     0  0
  3 15  1  0     0  0
 15 16  2  0     0  0
 15 17  1  0     0  0
  1 18  1  6     0  0
 14 19  1  0     0  0
 19 20  2  0     0  0
 20 21  1  0     0  0
 21 22  2  0     0  0
 22 23  1  0     0  0
 23 24  2  0     0  0
 19 24  1  0     0  0
 22 25  1  0     0  0
 25 26  1  0     0  0
 25 27  2  0     0  0
 13 28  1  0     0  0
 13 29  1  6     0  0
 28 30  2  0     0  0
 28 31  2  0     0  0
 28 32  1  0     0  0
 29 33  2  0     0  0
 33 34  1  0     0  0
 34 35  2  0     0  0
 35 36  1  0     0  0
 36 37  2  0     0  0
 29 37  1  0     0  0
M  CHG  2  17  -1  19   1
M  END
> <ID>
CHEBI:3507

> <NAME>
cefsulodin

> <DEFINITION>
A pyridinium-substituted semi-synthetic, broad-spectrum, cephalosporin antibiotic.

> <STAR>
3

> <SYNONYM>
Cefsulodin

> <IUPAC_NAME>
7beta-{[(2R)-2-phenyl-2-sulfoacetyl]amino}-3-(4-carbamoylpyridinium-1-yl)methyl-3,4-didehydrocepham-4-carboxylate; (6R,7R)-3-[(4-carbamoylpyridinium-1-yl)methyl]-8-oxo-7-{[(2R)-2-phenyl-2-sulfoacetyl]amino}-5-thia-1-azabicyclo[4.2.0]oct-2-ene-2-carboxylate

> <INN>
cefsulodinum; cefsulodino; cefsulodine; cefsulodin

> <FORMULA>
C22H20N4O8S2

> <MASS>
532.54600

> <MONOISOTOPIC_MASS>
532.07226

> <CHARGE>
0

> <SMILES>
[H][C@]12SCC(C[n+]3ccc(cc3)C(N)=O)=C(N1C(=O)[C@H]2NC(=O)[C@@H](c1ccccc1)S(O)(=O)=O)C([O-])=O

> <INCHI>
InChI=1S/C22H20N4O8S2/c23-18(27)13-6-8-25(9-7-13)10-14-11-35-21-15(20(29)26(21)16(14)22(30)31)24-19(28)17(36(32,33)34)12-4-2-1-3-5-12/h1-9,15,17,21H,10-11H2,(H4-,23,24,27,28,30,31,32,33,34)/t15-,17-,21-/m1/s1

> <INCHIKEY>
SYLKGLMBLAAGSC-QLVMHMETSA-N

> <CAS_REGISTRY_NUMBER>
62587-73-9

> <CHEMIDPLUS>
62587-73-9

> <KEGG_COMPOUND_ACCESSION>
C11253

> <KEGG_DRUG_ACCESSION>
D07653

> <WIKIPEDIA_ACCESSION>
Cefsulodin

> <PUBMED_CITATION>
1384868; 23139798; 29017833

$$$$

Marvin  10110711362D          

 30 32  0  0  1  0            999 V2000
    9.8452   -4.6688    0.0000 C   0  0  2  0  0  0  0  0  0  0  0  0
    9.8452   -5.4936    0.0000 N   0  0  0  0  0  0  0  0  0  0  0  0
   10.5596   -5.9059    0.0000 C   0  0  0  0  0  0  0  0  0  0  0  0
   11.2740   -5.4936    0.0000 C   0  0  0  0  0  0  0  0  0  0  0  0
   11.2740   -4.6688    0.0000 C   0  0  0  0  0  0  0  0  0  0  0  0
   10.5596   -4.2563    0.0000 S   0  0  0  0  0  0  0  0  0  0  0  0
    9.0203   -4.6688    0.0000 C   0  0  1  0  0  0  0  0  0  0  0  0
    9.0203   -5.4936    0.0000 C   0  0  0  0  0  0  0  0  0  0  0  0
    8.3060   -4.2563    0.0000 N   0  0  0  0  0  0  0  0  0  0  0  0
    7.5916   -4.6688    0.0000 C   0  0  0  0  0  0  0  0  0  0  0  0
    7.5916   -5.4936    0.0000 O   0  0  0  0  0  0  0  0  0  0  0  0
    8.3060   -5.9059    0.0000 O   0  0  0  0  0  0  0  0  0  0  0  0
    6.8772   -4.2563    0.0000 C   0  0  0  0  0  0  0  0  0  0  0  0
   11.9992   -5.9126    0.0000 C   0  0  0  0  0  0  0  0  0  0  0  0
   10.5596   -6.7307    0.0000 C   0  0  0  0  0  0  0  0  0  0  0  0
    9.8353   -7.1489    0.0000 O   0  0  0  0  0  0  0  0  0  0  0  0
   11.2639   -7.1374    0.0000 O   0  0  0  0  0  0  0  0  0  0  0  0
    6.1514   -4.6756    0.0000 C   0  0  0  0  0  0  0  0  0  0  0  0
    9.8452   -3.8430    0.0000 H   0  0  0  0  0  0  0  0  0  0  0  0
    5.4709   -4.1964    0.0000 O   0  0  0  0  0  0  0  0  0  0  0  0
    4.8020   -4.6957    0.0000 C   0  0  0  0  0  0  0  0  0  0  0  0
    5.0702   -5.4861    0.0000 C   0  0  0  0  0  0  0  0  0  0  0  0
    5.9048   -5.4753    0.0000 C   0  0  0  0  0  0  0  0  0  0  0  0
    6.8771   -3.4189    0.0000 N   0  0  0  0  0  0  0  0  0  0  0  0
   12.7237   -5.4946    0.0000 O   0  0  0  0  0  0  0  0  0  0  0  0
   13.4239   -5.8992    0.0000 C   0  0  0  0  0  0  0  0  0  0  0  0
   14.1290   -5.4923    0.0000 N   0  0  0  0  0  0  0  0  0  0  0  0
   13.4237   -6.7283    0.0000 O   0  0  0  0  0  0  0  0  0  0  0  0
    7.5935   -3.0053    0.0000 O   0  0  0  0  0  0  0  0  0  0  0  0
    7.5936   -2.1768    0.0000 C   0  0  0  0  0  0  0  0  0  0  0  0
  1  2  1  0  0  0  0
  2  3  1  0  0  0  0
  3  4  2  0  0  0  0
  4  5  1  0  0  0  0
  5  6  1  0  0  0  0
  1  6  1  0  0  0  0
  1  7  1  0  0  0  0
  7  8  1  0  0  0  0
  2  8  1  0  0  0  0
  7  9  1  1  0  0  0
  9 10  1  0  0  0  0
 10 11  2  0  0  0  0
  8 12  2  0  0  0  0
 10 13  1  0  0  0  0
  4 14  1  0  0  0  0
  3 15  1  0  0  0  0
 15 16  2  0  0  0  0
 15 17  1  0  0  0  0
 13 18  1  0  0  0  0
  1 19  1  6  0  0  0
 18 20  1  0  0  0  0
 20 21  1  0  0  0  0
 21 22  2  0  0  0  0
 22 23  1  0  0  0  0
 18 23  2  0  0  0  0
 13 24  2  0  0  0  0
 14 25  1  0  0  0  0
 25 26  1  0  0  0  0
 26 27  1  0  0  0  0
 26 28  2  0  0  0  0
 24 29  1  0  0  0  0
 29 30  1  0  0  0  0
M  END
> <ID>
CHEBI:3515

> <NAME>
cefuroxime

> <DEFINITION>
A 3-(carbamoyloxymethyl)cephalosporin compound having a 7-(2Z)-2-(furan-2-yl)-2-(methoxyimino)acetamido side chain.

> <STAR>
3

> <SYNONYM>
Cephuroxime; Cefuroxime; Cefuroxim; (6R,7R)-3-[(carbamoyloxy)methyl]-7-{[(2Z)-2-furan-2-yl-2-(methoxyimino)acetyl]amino}-8-oxo-5-thia-1-azabicyclo[4.2.0]oct-2-ene-2-carboxylic acid

> <IUPAC_NAME>
3-[(carbamoyloxy)methyl]-7beta-[(2Z)-2-(furan-2-yl)-2-(methoxyimino)acetamido]-3,4-didehydrocepham-4-carboxylic acid

> <INN>
cefuroximum; cefuroximo; cefuroxime

> <BRAND_NAME>
Zinacef Danmark; Sharox

> <FORMULA>
C16H16N4O8S

> <MASS>
424.38640

> <MONOISOTOPIC_MASS>
424.06888

> <CHARGE>
0

> <SMILES>
[H][C@]12SCC(COC(N)=O)=C(N1C(=O)[C@H]2NC(=O)C(=N/OC)\c1ccco1)C(O)=O

> <INCHI>
InChI=1S/C16H16N4O8S/c1-26-19-9(8-3-2-4-27-8)12(21)18-10-13(22)20-11(15(23)24)7(5-28-16(17)25)6-29-14(10)20/h2-4,10,14H,5-6H2,1H3,(H2,17,25)(H,18,21)(H,23,24)/b19-9-/t10-,14-/m1/s1

> <INCHIKEY>
JFPVXVDWJQMJEE-IZRZKJBUSA-N

> <CAS_REGISTRY_NUMBER>
55268-75-2

> <REAXYS_REGISTRY_NUMBER>
5783190

> <CHEMIDPLUS>
55268-75-2

> <DRUGBANK_ACCESSION>
DB01112

> <KEGG_COMPOUND_ACCESSION>
C06894

> <KEGG_DRUG_ACCESSION>
D00262

> <METACYC_ACCESSION>
CPD0-2069

> <WIKIPEDIA_ACCESSION>
Cefuroxime

> <PUBMED_CITATION>
11168076; 11322179; 11581233; 12141712; 12235459; 12833570; 12898829; 14658923; 15052582; 15828440; 16341950; 17111749; 17113884; 17261579; 17366015; 17676080; 18208759; 18611587; 18795089; 18931469; 19069618; 19142482; 19411164; 21425867; 29017833

$$$$



36 38  0  0  1  0  0  0  0  0999 V2000
   32.5083  -18.1276    0.0000 C   0  0  0  0  0  0  0  0  0  0  0  0
   32.5083  -19.4964    0.0000 N   0  0  0  0  0  0  0  0  0  0  0  0
   33.6941  -20.1808    0.0000 C   0  0  0  0  0  0  0  0  0  0  0  0
   34.8795  -19.4964    0.0000 C   0  0  0  0  0  0  0  0  0  0  0  0
   34.8795  -18.1276    0.0000 C   0  0  0  0  0  0  0  0  0  0  0  0
   33.6941  -17.4431    0.0000 S   0  0  0  0  0  0  0  0  0  0  0  0
   31.1394  -18.1276    0.0000 C   0  0  0  0  0  0  0  0  0  0  0  0
   31.1394  -19.4964    0.0000 C   0  0  0  0  0  0  0  0  0  0  0  0
   29.9541  -17.4431    0.0000 N   0  0  0  0  0  0  0  0  0  0  0  0
   28.7685  -18.1276    0.0000 C   0  0  0  0  0  0  0  0  0  0  0  0
   28.7685  -19.4964    0.0000 O   0  0  0  0  0  0  0  0  0  0  0  0
   29.9541  -20.1808    0.0000 O   0  0  0  0  0  0  0  0  0  0  0  0
   27.5829  -17.4431    0.0000 C   0  0  0  0  0  0  0  0  0  0  0  0
   36.0830  -20.1918    0.0000 C   0  0  0  0  0  0  0  0  0  0  0  0
   33.6941  -22.5791    0.0000 C   0  0  0  0  0  0  0  0  0  0  0  0
   32.4919  -23.2732    0.0000 O   0  0  0  0  0  0  0  0  0  0  0  0
   34.8628  -23.2540    0.0000 O   0  0  0  0  0  0  0  0  0  0  0  0
   26.3785  -18.1390    0.0000 C   0  0  0  0  0  0  0  0  0  0  0  0
   32.5083  -16.7573    0.0000 H   0  0  0  0  0  0  0  0  0  0  0  0
   25.2490  -17.3437    0.0000 O   0  0  0  0  0  0  0  0  0  0  0  0
   24.1392  -18.1723    0.0000 C   0  0  0  0  0  0  0  0  0  0  0  0
   24.5841  -19.4839    0.0000 C   0  0  0  0  0  0  0  0  0  0  0  0
   25.9690  -19.4663    0.0000 C   0  0  0  0  0  0  0  0  0  0  0  0
   27.5828  -16.0534    0.0000 N   0  0  0  0  0  0  0  0  0  0  0  0
   37.2854  -19.4981    0.0000 O   0  0  0  0  0  0  0  0  0  0  0  0
   38.4474  -20.1696    0.0000 C   0  0  0  0  0  0  0  0  0  0  0  0
   39.6174  -19.4943    0.0000 N   0  0  0  0  0  0  0  0  0  0  0  0
   38.4470  -21.5454    0.0000 O   0  0  0  0  0  0  0  0  0  0  0  0
   31.3137  -22.5927    0.0000 C   0  0  0  0  0  0  0  0  0  0  0  0
   30.1591  -23.2590    0.0000 O   0  0  0  0  0  0  0  0  0  0  0  0
   28.9862  -22.5815    0.0000 C   0  0  0  0  0  0  0  0  0  0  0  0
   27.8220  -23.2532    0.0000 C   0  0  0  0  0  0  0  0  0  0  0  0
   31.3134  -21.1994    0.0000 C   0  0  0  0  0  0  0  0  0  0  0  0
   28.9864  -21.1993    0.0000 O   0  0  0  0  0  0  0  0  0  0  0  0
   28.8038  -15.3478    0.0000 O   0  0  0  0  0  0  0  0  0  0  0  0
   28.8038  -13.9498    0.0000 C   0  0  0  0  0  0  0  0  0  0  0  0
  1  2  1  0     0  0
  2  3  1  0     0  0
  3  4  2  0     0  0
  4  5  1  0     0  0
  5  6  1  0     0  0
  1  6  1  0     0  0
  1  7  1  0     0  0
  7  8  1  0     0  0
  2  8  1  0     0  0
  7  9  1  1     0  0
  9 10  1  0     0  0
 10 11  2  0     0  0
  8 12  2  0     0  0
 10 13  1  0     0  0
  4 14  1  0     0  0
  3 15  1  0     0  0
 15 16  1  0     0  0
 15 17  2  0     0  0
 13 18  1  0     0  0
  1 19  1  6     0  0
 18 20  1  0     0  0
 20 21  1  0     0  0
 21 22  2  0     0  0
 22 23  1  0     0  0
 18 23  2  0     0  0
 13 24  2  0     0  0
 14 25  1  0     0  0
 25 26  1  0     0  0
 26 27  1  0     0  0
 26 28  2  0     0  0
 16 29  1  0     0  0
 29 30  1  0     0  0
 30 31  1  0     0  0
 31 32  1  0     0  0
 29 33  1  0     0  0
 31 34  2  0     0  0
 24 35  1  0     0  0
 35 36  1  0     0  0
M  END
> <ID>
CHEBI:3516

> <NAME>
Cefuroxime axetil

> <STAR>
2

> <SYNONYM>
oraxim; Cefuroxime axetil; Cefuroxime 1-acetoxyethyl ester; cefurax; ceftin; cefazine; altacef

> <FORMULA>
C20H22N4O10S

> <MASS>
510.476

> <MONOISOTOPIC_MASS>
510.10566

> <CHARGE>
0

> <SMILES>
CO\N=C(/C(=O)N[C@H]1[C@H]2SCC(COC(N)=O)=C(N2C1=O)C(=O)OC(C)OC(C)=O)c1ccco1

> <INCHI>
InChI=1S/C20H22N4O10S/c1-9(25)33-10(2)34-19(28)15-11(7-32-20(21)29)8-35-18-14(17(27)24(15)18)22-16(26)13(23-30-3)12-5-4-6-31-12/h4-6,10,14,18H,7-8H2,1-3H3,(H2,21,29)(H,22,26)/b23-13-/t10?,14-,18-/m1/s1

> <INCHIKEY>
KEJCWVGMRLCZQQ-YJBYXUATSA-N

> <CAS_REGISTRY_NUMBER>
64544-07-6

> <KEGG_COMPOUND_ACCESSION>
C08107

> <KEGG_DRUG_ACCESSION>
D00914

$$$$

Marvin  01261110322D          

 25 27  0  0  1  0            999 V2000
   16.9569   -8.7812    0.0000 C   0  0  2  0  0  0  0  0  0  0  0  0
   16.9569   -9.6062    0.0000 N   0  0  0  0  0  0  0  0  0  0  0  0
   17.6714  -10.0187    0.0000 C   0  0  0  0  0  0  0  0  0  0  0  0
   18.3859   -9.6062    0.0000 C   0  0  0  0  0  0  0  0  0  0  0  0
   18.3859   -8.7812    0.0000 C   0  0  0  0  0  0  0  0  0  0  0  0
   17.6714   -8.3687    0.0000 S   0  0  0  0  0  0  0  0  0  0  0  0
   16.1319   -8.7812    0.0000 C   0  0  1  0  0  0  0  0  0  0  0  0
   16.1319   -9.6062    0.0000 C   0  0  0  0  0  0  0  0  0  0  0  0
   15.4174   -8.3687    0.0000 N   0  0  0  0  0  0  0  0  0  0  0  0
   14.7028   -8.7812    0.0000 C   0  0  0  0  0  0  0  0  0  0  0  0
   14.7028   -9.6062    0.0000 O   0  0  0  0  0  0  0  0  0  0  0  0
   15.4174  -10.0187    0.0000 O   0  0  0  0  0  0  0  0  0  0  0  0
   13.9883   -8.3687    0.0000 C   0  0  1  0  0  0  0  0  0  0  0  0
   19.1003  -10.0189    0.0000 C   0  0  0  0  0  0  0  0  0  0  0  0
   17.6714  -10.8436    0.0000 C   0  0  0  0  0  0  0  0  0  0  0  0
   16.9470  -11.2619    0.0000 O   0  0  0  0  0  0  0  0  0  0  0  0
   18.3759  -11.2504    0.0000 O   0  0  0  0  0  0  0  0  0  0  0  0
   13.2624   -8.7881    0.0000 C   0  0  0  0  0  0  0  0  0  0  0  0
   12.5488   -8.3761    0.0000 C   0  0  0  0  0  0  0  0  0  0  0  0
   11.8352   -8.7881    0.0000 C   0  0  0  0  0  0  0  0  0  0  0  0
   11.8352   -9.6121    0.0000 C   0  0  0  0  0  0  0  0  0  0  0  0
   12.5488  -10.0241    0.0000 C   0  0  0  0  0  0  0  0  0  0  0  0
   13.2624   -9.6121    0.0000 C   0  0  0  0  0  0  0  0  0  0  0  0
   13.9883   -7.5410    0.0000 N   0  0  0  0  0  0  0  0  0  0  0  0
   16.9569   -7.9553    0.0000 H   0  0  0  0  0  0  0  0  0  0  0  0
  1  2  1  0  0  0  0
  2  3  1  0  0  0  0
  3  4  2  0  0  0  0
  4  5  1  0  0  0  0
  5  6  1  0  0  0  0
  1  6  1  0  0  0  0
  1  7  1  0  0  0  0
  7  8  1  0  0  0  0
  2  8  1  0  0  0  0
  7  9  1  1  0  0  0
  9 10  1  0  0  0  0
 10 11  2  0  0  0  0
  8 12  2  0  0  0  0
 10 13  1  0  0  0  0
  4 14  1  0  0  0  0
  3 15  1  0  0  0  0
 15 16  2  0  0  0  0
 15 17  1  0  0  0  0
 13 18  1  0  0  0  0
 18 19  2  0  0  0  0
 19 20  1  0  0  0  0
 20 21  2  0  0  0  0
 21 22  1  0  0  0  0
 22 23  2  0  0  0  0
 18 23  1  0  0  0  0
 13 24  1  1  0  0  0
  1 25  1  6  0  0  0
M  END
> <ID>
CHEBI:3534

> <NAME>
cephalexin

> <DEFINITION>
A semisynthetic first-generation cephalosporin antibiotic having methyl and β-(2R)-2-amino-2-phenylacetamido groups at the 3- and 7- of the cephem skeleton, respectively. It is effective against both Gram-negative and Gram-positive organisms, and is used for treatment of infections of the skin, respiratory tract and urinary tract.

> <STAR>
3

> <SYNONYM>
CEX; Ceporexin; Cephacillin; Cepexin; Cepastar; Celexin; Cefalexin; 7-beta-(D-alpha-Amino-alpha-phenylacetylamino)-3-methyl-3-cephem-4-carboxylic acid; 7-(D-alpha-Aminophenylacetamido)desacetoxycephalosporanic acid; (6R,7R)-7-{[(2R)-2-amino-2-phenylacetyl]amino}-3-methyl-8-oxo-5-thia-1-azabicyclo[4.2.0]oct-2-ene-2-carboxylic acid

> <IUPAC_NAME>
7beta-[(2R)-2-amino-2-phenylacetamido]-3-methyl-3,4-didehydrocepham-4-carboxylic acid

> <INN>
cefalexinum; cefalexine; cefalexina

> <FORMULA>
C16H17N3O4S

> <MASS>
347.38900

> <MONOISOTOPIC_MASS>
347.09398

> <CHARGE>
0

> <SMILES>
[H][C@]12SCC(C)=C(N1C(=O)[C@H]2NC(=O)[C@H](N)c1ccccc1)C(O)=O

> <INCHI>
InChI=1S/C16H17N3O4S/c1-8-7-24-15-11(14(21)19(15)12(8)16(22)23)18-13(20)10(17)9-5-3-2-4-6-9/h2-6,10-11,15H,7,17H2,1H3,(H,18,20)(H,22,23)/t10-,11-,15-/m1/s1

> <INCHIKEY>
ZAIPMKNFIOOWCQ-UEKVPHQBSA-N

> <BEILSTEIN_REGISTRY_NUMBER>
965503

> <CAS_REGISTRY_NUMBER>
15686-71-2

> <REAXYS_REGISTRY_NUMBER>
4238892

> <CHEMIDPLUS>
15686-71-2

> <DRUGBANK_ACCESSION>
DB00567

> <HMDB_ACCESSION>
HMDB0014707

> <KEGG_COMPOUND_ACCESSION>
C06895

> <KEGG_DRUG_ACCESSION>
D00263

> <LINCS_ACCESSION>
LSM-5957

> <WIKIPEDIA_ACCESSION>
Cefalexin

> <PUBMED_CITATION>
10930630; 12569987; 12833570; 1384868; 2083978; 22559990; 23061564; 23457080; 23545436; 23688276; 23811740; 24268227; 24548092; 29017833

$$$$

Ketcher 12041910552D 1   1.00000     0.00000     0

 29 32  0     1  0            999 V2000
   19.7750  -10.3784    0.0000 C   0  0  0  0  0  0  0  0  0  0  0  0
   19.7750  -11.3770    0.0000 N   0  0  0  0  0  0  0  0  0  0  0  0
   20.6398  -11.8763    0.0000 C   0  0  0  0  0  0  0  0  0  0  0  0
   21.5047  -11.3770    0.0000 C   0  0  0  0  0  0  0  0  0  0  0  0
   21.5047  -10.3784    0.0000 C   0  0  0  0  0  0  0  0  0  0  0  0
   20.6398   -9.8792    0.0000 S   0  0  0  0  0  0  0  0  0  0  0  0
   18.7764  -10.3784    0.0000 C   0  0  0  0  0  0  0  0  0  0  0  0
   18.7764  -11.3770    0.0000 C   0  0  0  0  0  0  0  0  0  0  0  0
   17.9116   -9.8792    0.0000 N   0  0  0  0  0  0  0  0  0  0  0  0
   17.0467  -10.3784    0.0000 C   0  0  0  0  0  0  0  0  0  0  0  0
   17.0467  -11.3770    0.0000 O   0  0  0  0  0  0  0  0  0  0  0  0
   17.9116  -11.8763    0.0000 O   0  0  0  0  0  0  0  0  0  0  0  0
   16.1820   -9.8792    0.0000 C   0  0  0  0  0  0  0  0  0  0  0  0
   22.3828  -11.8843    0.0000 C   0  0  0  0  0  0  0  0  0  0  0  0
   20.6398  -12.8748    0.0000 C   0  0  0  0  0  0  0  0  0  0  0  0
   19.7630  -13.3811    0.0000 O   0  0  0  0  0  0  0  0  0  0  0  0
   21.4925  -13.3672    0.0000 O   0  0  0  0  0  0  0  0  0  0  0  0
   15.3033  -10.3868    0.0000 C   0  0  0  0  0  0  0  0  0  0  0  0
   19.7750   -9.3788    0.0000 H   0  0  0  0  0  0  0  0  0  0  0  0
   23.2511  -11.3830    0.0000 N   0  0  0  0  0  0  0  0  0  0  0  0
   24.1165  -11.8827    0.0000 C   0  0  0  0  0  0  0  0  0  0  0  0
   24.9818  -11.3830    0.0000 C   0  0  0  0  0  0  0  0  0  0  0  0
   24.9818  -10.3837    0.0000 C   0  0  0  0  0  0  0  0  0  0  0  0
   24.1165   -9.8841    0.0000 C   0  0  0  0  0  0  0  0  0  0  0  0
   23.2511  -10.3837    0.0000 C   0  0  0  0  0  0  0  0  0  0  0  0
   14.5012   -9.7923    0.0000 S   0  0  0  0  0  0  0  0  0  0  0  0
   13.6868  -10.3720    0.0000 C   0  0  0  0  0  0  0  0  0  0  0  0
   13.9864  -11.3257    0.0000 C   0  0  0  0  0  0  0  0  0  0  0  0
   14.9859  -11.3355    0.0000 C   0  0  0  0  0  0  0  0  0  0  0  0
  1  2  1  0     0  0
  2  3  1  0     0  0
  3  4  2  0     0  0
  4  5  1  0     0  0
  5  6  1  0     0  0
  1  6  1  0     0  0
  1  7  1  0     0  0
  7  8  1  0     0  0
  2  8  1  0     0  0
  7  9  1  1     0  0
  9 10  1  0     0  0
 10 11  2  0     0  0
  8 12  2  0     0  0
 10 13  1  0     0  0
  4 14  1  0     0  0
  3 15  1  0     0  0
 15 16  2  0     0  0
 15 17  1  0     0  0
 13 18  1  0     0  0
  1 19  1  6     0  0
 14 20  1  0     0  0
 20 21  2  0     0  0
 21 22  1  0     0  0
 22 23  2  0     0  0
 23 24  1  0     0  0
 24 25  2  0     0  0
 20 25  1  0     0  0
 18 26  1  0     0  0
 26 27  1  0     0  0
 27 28  2  0     0  0
 28 29  1  0     0  0
 18 29  2  0     0  0
M  CHG  2  17  -1  20   1
M  END
> <ID>
CHEBI:3537

> <NAME>
cefaloridine

> <DEFINITION>
A cephalosporin compound having pyridinium-1-ylmethyl and 2-thienylacetamido side-groups. A first-generation semisynthetic derivative of cephalosporin C.

> <STAR>
3

> <SECONDARY_ID>
CHEBI:235235

> <SYNONYM>
N-(7-(2'-Thienylacetamidoceph-3-ylmethyl))-pyridinium-2-carboxylate; N-(7-((2-Thienyl)acetamido)ceph-3-em-3-ylmethyl)pyridinium-4-carboxylate; Cephaloridinum; Cephaloridine; Cephaloridin; Cepalorin; Cepaloridin; Ceflorin; Cefalorizin; Cefaloridin; 7-((2-Thienyl)acetamido)-3-(1-pyridylmethyl)cephalosporanic acid; (6R,7R)-8-oxo-3-(pyridinium-1-ylmethyl)-7-[(2-thienylacetyl)amino]-5-thia-1-azabicyclo[4.2.0]oct-2-ene-2-carboxylate

> <IUPAC_NAME>
3-(pyridinium-1-ylmethyl)-7beta-[(2-thienylacetyl)amino]-3,4-didehydrocepham-4-carboxylate

> <INN>
cefaloridinum; cefaloridine; cefaloridina

> <FORMULA>
C19H17N3O4S2

> <MASS>
415.480

> <MONOISOTOPIC_MASS>
415.06605

> <CHARGE>
0

> <SMILES>
[C@]12(N(C(=C(CS1)C[N+]3=CC=CC=C3)C(=O)[O-])C([C@H]2NC(=O)CC=4SC=CC4)=O)[H]

> <INCHI>
InChI=1S/C19H17N3O4S2/c23-14(9-13-5-4-8-27-13)20-15-17(24)22-16(19(25)26)12(11-28-18(15)22)10-21-6-2-1-3-7-21/h1-8,15,18H,9-11H2,(H-,20,23,25,26)/t15-,18-/m1/s1

> <INCHIKEY>
CZTQZXZIADLWOZ-CRAIPNDOSA-N

> <BEILSTEIN_REGISTRY_NUMBER>
4166301

> <CAS_REGISTRY_NUMBER>
50-59-9

> <REAXYS_REGISTRY_NUMBER>
4166301

> <CHEMIDPLUS>
50-59-9

> <KEGG_COMPOUND_ACCESSION>
C11754

> <KEGG_DRUG_ACCESSION>
D01075

> <WIKIPEDIA_ACCESSION>
Cephaloridine

> <PUBMED_CITATION>
12569987; 14226120; 2083978; 29017833; 4868829; 5325246; 5740219; 724127

$$$$

Marvin  01261110412D          

 25 27  0  0  0  0            999 V2000
   13.4633   -1.0191    0.0000 C   0  0  0  0  0  0  0  0  0  0  0  0
   12.7489   -0.6066    0.0000 S   0  0  0  0  0  0  0  0  0  0  0  0
   12.7489   -2.2566    0.0000 C   0  0  0  0  0  0  0  0  0  0  0  0
   13.4633   -1.8441    0.0000 C   0  0  0  0  0  0  0  0  0  0  0  0
   14.1778   -2.2566    0.0000 C   0  0  0  0  0  0  0  0  0  0  0  0
   12.7489   -3.0816    0.0000 C   0  0  0  0  0  0  0  0  0  0  0  0
   12.0344   -3.4941    0.0000 O   0  0  0  0  0  0  0  0  0  0  0  0
   13.4633   -3.4941    0.0000 O   0  0  0  0  0  0  0  0  0  0  0  0
   12.0344   -1.8441    0.0000 N   0  0  0  0  0  0  0  0  0  0  0  0
   11.2094   -1.8441    0.0000 C   0  0  0  0  0  0  0  0  0  0  0  0
   10.4949   -2.2566    0.0000 O   0  0  0  0  0  0  0  0  0  0  0  0
   12.0344   -1.0191    0.0000 C   0  0  1  0  0  0  0  0  0  0  0  0
   11.8209   -0.2222    0.0000 H   0  0  0  0  0  0  0  0  0  0  0  0
   11.2094   -1.0191    0.0000 C   0  0  2  0  0  0  0  0  0  0  0  0
   10.4949   -0.6066    0.0000 N   0  0  0  0  0  0  0  0  0  0  0  0
    8.3515   -1.0191    0.0000 C   0  0  0  0  0  0  0  0  0  0  0  0
    7.6370   -0.6066    0.0000 C   0  0  0  0  0  0  0  0  0  0  0  0
    6.9226   -1.0191    0.0000 C   0  0  0  0  0  0  0  0  0  0  0  0
    6.9226   -1.8442    0.0000 C   0  0  0  0  0  0  0  0  0  0  0  0
    7.6370   -2.2567    0.0000 C   0  0  0  0  0  0  0  0  0  0  0  0
    8.3515   -1.8442    0.0000 C   0  0  0  0  0  0  0  0  0  0  0  0
    9.0660   -0.6066    0.0000 C   0  0  1  0  0  0  0  0  0  0  0  0
    9.0660    0.2184    0.0000 N   0  0  0  0  0  0  0  0  0  0  0  0
    9.7805   -1.0191    0.0000 C   0  0  0  0  0  0  0  0  0  0  0  0
    9.7805   -1.8441    0.0000 O   0  0  0  0  0  0  0  0  0  0  0  0
  4  1  1  0  0  0  0
  1  2  1  0  0  0  0
  2 12  1  0  0  0  0
  3  4  2  0  0  0  0
  3  9  1  0  0  0  0
  3  6  1  0  0  0  0
  4  5  1  0  0  0  0
  6  8  1  0  0  0  0
  6  7  2  0  0  0  0
 12  9  1  0  0  0  0
  9 10  1  0  0  0  0
 14 10  1  0  0  0  0
 10 11  2  0  0  0  0
 12 14  1  0  0  0  0
 12 13  1  6  0  0  0
 14 15  1  1  0  0  0
 15 24  1  0  0  0  0
 24 22  1  0  0  0  0
 22 16  1  0  0  0  0
 21 16  1  0  0  0  0
 17 16  2  0  0  0  0
 17 18  1  0  0  0  0
 18 19  1  0  0  0  0
 19 20  2  0  0  0  0
 20 21  1  0  0  0  0
 22 23  1  1  0  0  0
 24 25  2  0  0  0  0
M  END
> <ID>
CHEBI:3547

> <NAME>
cephradine

> <DEFINITION>
A first-generation cephalosporin antibiotic with a methyl substituent at position 3, and a (2R)-2-amino-2-cyclohexa-1,4-dien-1-ylacetamido substituent at position 7, of the cephem skeleton.

> <STAR>
3

> <SYNONYM>
Sefril; Eskacef; Cephradine; Cephradin; Cefradine; CED; Anspor; 7-(D-2-Amino-2-(1,4-cyclohexadienyl)acetamide)desacetoxycephalosporanicacid; (6R,7R)-7-{[(2R)-2-amino-2-cyclohexa-1,4-dien-1-ylacetyl]amino}-3-methyl-8-oxo-5-thia-1-azabicyclo[4.2.0]oct-2-ene-2-carboxylic acid; (6R,7R)-7-((R)-2-Amino-2-(1,4-cyclohexadien-1-yl)acetamido)-3-methyl-8-oxo-5-thia-1-azabicyclo(4.2.0)oct-2-ene-2-carboxylic acid

> <IUPAC_NAME>
7beta-[(2R)-2-(cyclohexa-1,4-dienyl)-2-phenylacetamido]-3-methyl-3,4-didehydrocepham-4-carboxylic acid

> <INN>
cefradinum; cefradine; cefradina

> <BRAND_NAME>
Velosef

> <FORMULA>
C16H19N3O4S

> <MASS>
349.40500

> <MONOISOTOPIC_MASS>
349.10963

> <CHARGE>
0

> <SMILES>
[H][C@]12SCC(C)=C(N1C(=O)[C@H]2NC(=O)[C@H](N)C1=CCC=CC1)C(O)=O

> <INCHI>
InChI=1S/C16H19N3O4S/c1-8-7-24-15-11(14(21)19(15)12(8)16(22)23)18-13(20)10(17)9-5-3-2-4-6-9/h2-3,6,10-11,15H,4-5,7,17H2,1H3,(H,18,20)(H,22,23)/t10-,11-,15-/m1/s1

> <INCHIKEY>
RDLPVSKMFDYCOR-UEKVPHQBSA-N

> <BEILSTEIN_REGISTRY_NUMBER>
4211105

> <CAS_REGISTRY_NUMBER>
38821-53-3

> <REAXYS_REGISTRY_NUMBER>
4211105

> <CHEMIDPLUS>
38821-53-3

> <DRUGBANK_ACCESSION>
DB01333

> <HMDB_ACCESSION>
HMDB0015428

> <KEGG_DRUG_ACCESSION>
D00264

> <WIKIPEDIA_ACCESSION>
Cephradine

> <PUBMED_CITATION>
20188984; 2083978; 22305202; 24035952; 29017833; 9131470

$$$$

Marvin  04161011162D          

 36 39  0  0  1  0            999 V2000
    5.8464   -8.8794    0.0000 N   0  0  0  0  0  0  0  0  0  0  0  0
    5.0136   -8.8794    0.0000 C   0  0  0  0  0  0  0  0  0  0  0  0
    5.8464   -8.0548    0.0000 C   0  0  1  0  0  0  0  0  0  0  0  0
    5.0136   -8.0548    0.0000 C   0  0  2  0  0  0  0  0  0  0  0  0
    9.3393  -10.1721    0.0000 N   0  0  0  0  0  0  0  0  0  0  0  0
    8.6888  -10.6652    0.0000 C   0  0  0  0  0  0  0  0  0  0  0  0
    6.5632   -9.3020    0.0000 C   0  0  0  0  0  0  0  0  0  0  0  0
    8.9498  -11.4276    0.0000 N   0  0  0  0  0  0  0  0  0  0  0  0
    9.7371  -11.4276    0.0000 N   0  0  0  0  0  0  0  0  0  0  0  0
    9.9981  -10.6569    0.0000 N   0  0  0  0  0  0  0  0  0  0  0  0
    6.5632   -7.6322    0.0000 S   0  0  0  0  0  0  0  0  0  0  0  0
    7.2759   -8.8794    0.0000 C   0  0  0  0  0  0  0  0  0  0  0  0
    6.5632  -10.1224    0.0000 C   0  0  0  0  0  0  0  0  0  0  0  0
    8.0175  -10.1555    0.0000 S   0  0  0  0  0  0  0  0  0  0  0  0
    9.3393   -9.3517    0.0000 C   0  0  0  0  0  0  0  0  0  0  0  0
    7.2759   -8.0548    0.0000 C   0  0  0  0  0  0  0  0  0  0  0  0
    8.0175   -9.3103    0.0000 C   0  0  0  0  0  0  0  0  0  0  0  0
    7.2717  -10.5451    0.0000 O   0  0  0  0  0  0  0  0  0  0  0  0
   10.0478   -8.9415    0.0000 C   0  0  0  0  0  0  0  0  0  0  0  0
   10.0478   -8.1212    0.0000 N   0  0  0  0  0  0  0  0  0  0  0  0
    5.8340  -10.5451    0.0000 O   0  0  0  0  0  0  0  0  0  0  0  0
   10.7439   -7.7110    0.0000 C   0  0  0  0  0  0  0  0  0  0  0  0
    9.3393   -7.7110    0.0000 C   0  0  0  0  0  0  0  0  0  0  0  0
    5.8464   -7.2137    0.0000 H   0  0  0  0  0  0  0  0  0  0  0  0
    4.2991   -7.6419    0.0000 N   0  0  0  0  0  0  0  0  0  0  0  0
    3.5846   -8.0544    0.0000 C   0  0  0  0  0  0  0  0  0  0  0  0
    3.5846   -8.8794    0.0000 O   0  0  0  0  0  0  0  0  0  0  0  0
    5.0136   -7.2298    0.0000 H   0  0  0  0  0  0  0  0  0  0  0  0
    2.8702   -7.6419    0.0000 C   0  0  0  0  0  0  0  0  0  0  0  0
    2.1557   -8.0544    0.0000 C   0  0  0  0  0  0  0  0  0  0  0  0
    1.3922   -7.7418    0.0000 N   0  0  0  0  0  0  0  0  0  0  0  0
    0.8590   -8.3714    0.0000 C   0  0  0  0  0  0  0  0  0  0  0  0
    1.2930   -9.0730    0.0000 S   0  0  0  0  0  0  0  0  0  0  0  0
    2.0944   -8.8771    0.0000 C   0  0  0  0  0  0  0  0  0  0  0  0
    0.0363   -8.3101    0.0000 N   0  0  0  0  0  0  0  0  0  0  0  0
    4.4302   -9.4628    0.0000 O   0  0  0  0  0  0  0  0  0  0  0  0
  2  1  1  0  0  0  0
  3  1  1  0  0  0  0
  4  3  1  0  0  0  0
  5  6  1  0  0  0  0
  6 14  1  0  0  0  0
  7  1  1  0  0  0  0
  8  6  2  0  0  0  0
  9  8  1  0  0  0  0
 10  5  1  0  0  0  0
 11  3  1  0  0  0  0
 12  7  2  0  0  0  0
 13  7  1  0  0  0  0
 14 17  1  0  0  0  0
 15  5  1  0  0  0  0
 16 12  1  0  0  0  0
 17 12  1  0  0  0  0
 18 13  2  0  0  0  0
 19 15  1  0  0  0  0
 20 19  1  0  0  0  0
 21 13  1  0  0  0  0
 22 20  1  0  0  0  0
 23 20  1  0  0  0  0
  3 24  1  6  0  0  0
 16 11  1  0  0  0  0
 10  9  2  0  0  0  0
  2  4  1  0  0  0  0
 25  4  1  0  0  0  0
 25 26  1  0  0  0  0
 26 27  2  0  0  0  0
  4 28  1  6  0  0  0
 26 29  1  0  0  0  0
 29 30  1  0  0  0  0
 34 30  2  0  0  0  0
 31 30  1  0  0  0  0
 31 32  2  0  0  0  0
 32 33  1  0  0  0  0
 33 34  1  0  0  0  0
 32 35  1  0  0  0  0
  2 36  2  0  0  0  0
M  END
> <ID>
CHEBI:355510

> <NAME>
cefotiam

> <DEFINITION>
A cephalosporin with ({1-[2-(dimethylamino)ethyl]-1H-tetrazol-5-yl}sulfanyl)methyl and (2-amino-1,3-thiazol-4-yl)acetamido substituents at positions 3 and 7, respectively, of the cephem skeleton. A third generation beta-lactam cephalosporin antibiotic, it is active against a broad spectrum of both Gram positive and Gram negative bacteria.

> <STAR>
3

> <SYNONYM>
CTM; CEFOTIAM; (6R,7R)-7-[2-(2-Amino-thiazol-4-yl)-acetylamino]-3-[1-(2-dimethylamino-ethyl)-1H-tetrazol-5-ylsulfanylmethyl]-8-oxo-5-thia-1-aza-bicyclo[4.2.0]oct-2-ene-2-carboxylic acid

> <IUPAC_NAME>
7beta-(2-amino-1,3-thiazol-4-yl)acetamido-3-[({1-[2-(dimethylamino)ethyl]-1H-tetrazol-5-yl}sulfanyl)methyl]-3,4-didehydrocepham-4-carboxylic acid; (6R,7R)-7-{[(2-amino-1,3-thiazol-4-yl)acetyl]amino}-3-[({1-[2-(dimethylamino)ethyl]-1H-tetrazol-5-yl}sulfanyl)methyl]-8-oxo-5-thia-1-azabicyclo[4.2.0]oct-2-ene-2-carboxylic acid

> <INN>
cefotiamum; cefotiam

> <FORMULA>
C18H23N9O4S3

> <MASS>
525.62800

> <MONOISOTOPIC_MASS>
525.10351

> <CHARGE>
0

> <SMILES>
[H][C@]12SCC(CSc3nnnn3CCN(C)C)=C(N1C(=O)[C@@]2([H])NC(=O)Cc1csc(N)n1)C(O)=O

> <INCHI>
InChI=1S/C18H23N9O4S3/c1-25(2)3-4-26-18(22-23-24-26)34-7-9-6-32-15-12(14(29)27(15)13(9)16(30)31)21-11(28)5-10-8-33-17(19)20-10/h8,12,15H,3-7H2,1-2H3,(H2,19,20)(H,21,28)(H,30,31)/t12-,15-/m1/s1

> <INCHIKEY>
QYQDKDWGWDOFFU-IUODEOHRSA-N

> <CAS_REGISTRY_NUMBER>
61622-34-2

> <CHEMIDPLUS>
61622-34-2

> <DRUGBANK_ACCESSION>
DB00229

> <KEGG_DRUG_ACCESSION>
D07648

> <LINCS_ACCESSION>
LSM-2022

> <WIKIPEDIA_ACCESSION>
Cefotiam

> <PUBMED_CITATION>
28543395; 6341590

$$$$

Marvin  03301016262D          

 34 35  0  0  0  0            999 V2000
    3.8861    1.4562    0.0000 C   0  0  0  0  0  0  0  0  0  0  0  0
    4.6006    1.8687    0.0000 N   0  0  0  0  0  0  0  0  0  0  0  0
    5.3151    1.4562    0.0000 C   0  0  0  0  0  0  0  0  0  0  0  0
    5.3151    0.6312    0.0000 N   0  0  0  0  0  0  0  0  0  0  0  0
    6.0296    1.8687    0.0000 N   0  0  0  0  0  0  0  0  0  0  0  0
    6.7440    1.4562    0.0000 C   0  0  0  0  0  0  0  0  0  0  0  0
    6.7440    0.6312    0.0000 N   0  0  0  0  0  0  0  0  0  0  0  0
    7.4585    1.8687    0.0000 N   0  0  0  0  0  0  0  0  0  0  0  0
    8.1730    1.4562    0.0000 C   0  0  0  0  0  0  0  0  0  0  0  0
    8.8752    1.8893    0.0000 C   0  0  0  0  0  0  0  0  0  0  0  0
    8.1969    0.6316    0.0000 C   0  0  0  0  0  0  0  0  0  0  0  0
    8.9231    0.2400    0.0000 C   0  0  0  0  0  0  0  0  0  0  0  0
    9.6013    1.4978    0.0000 C   0  0  0  0  0  0  0  0  0  0  0  0
    9.6253    0.6731    0.0000 C   0  0  0  0  0  0  0  0  0  0  0  0
   10.3397    0.2606    0.0000 Cl  0  0  0  0  0  0  0  0  0  0  0  0
    3.8861    0.6312    0.0000 C   0  0  0  0  0  0  0  0  0  0  0  0
    3.1716    0.2187    0.0000 C   0  0  0  0  0  0  0  0  0  0  0  0
    3.1716   -0.6063    0.0000 C   0  0  0  0  0  0  0  0  0  0  0  0
    3.8861   -1.0188    0.0000 C   0  0  0  0  0  0  0  0  0  0  0  0
    3.8861   -1.8438    0.0000 C   0  0  0  0  0  0  0  0  0  0  0  0
    4.6006   -2.2563    0.0000 N   0  0  0  0  0  0  0  0  0  0  0  0
    5.3150   -1.8438    0.0000 C   0  0  0  0  0  0  0  0  0  0  0  0
    5.3150   -1.0188    0.0000 N   0  0  0  0  0  0  0  0  0  0  0  0
    6.0295   -2.2563    0.0000 N   0  0  0  0  0  0  0  0  0  0  0  0
    6.7440   -1.8438    0.0000 C   0  0  0  0  0  0  0  0  0  0  0  0
    6.7440   -1.0188    0.0000 N   0  0  0  0  0  0  0  0  0  0  0  0
    7.4585   -2.2563    0.0000 N   0  0  0  0  0  0  0  0  0  0  0  0
    8.1729   -1.8438    0.0000 C   0  0  0  0  0  0  0  0  0  0  0  0
    8.8874   -0.6063    0.0000 C   0  0  0  0  0  0  0  0  0  0  0  0
    8.1729   -1.0188    0.0000 C   0  0  0  0  0  0  0  0  0  0  0  0
    8.8874   -2.2563    0.0000 C   0  0  0  0  0  0  0  0  0  0  0  0
    9.6019   -1.8438    0.0000 C   0  0  0  0  0  0  0  0  0  0  0  0
    9.6019   -1.0188    0.0000 C   0  0  0  0  0  0  0  0  0  0  0  0
   10.3163   -0.6063    0.0000 Cl  0  0  0  0  0  0  0  0  0  0  0  0
  1  2  1  0  0  0  0
  2  3  1  0  0  0  0
  3  5  1  0  0  0  0
  3  4  2  0  0  0  0
  5  6  1  0  0  0  0
  6  8  1  0  0  0  0
  6  7  2  0  0  0  0
  8  9  1  0  0  0  0
 10  9  2  0  0  0  0
  9 11  1  0  0  0  0
 10 13  1  0  0  0  0
 11 12  2  0  0  0  0
 12 14  1  0  0  0  0
 14 13  2  0  0  0  0
 14 15  1  0  0  0  0
  1 16  1  0  0  0  0
 16 17  1  0  0  0  0
 17 18  1  0  0  0  0
 18 19  1  0  0  0  0
 19 20  1  0  0  0  0
 20 21  1  0  0  0  0
 21 22  1  0  0  0  0
 22 23  2  0  0  0  0
 22 24  1  0  0  0  0
 24 25  1  0  0  0  0
 25 26  2  0  0  0  0
 25 27  1  0  0  0  0
 27 28  1  0  0  0  0
 30 28  2  0  0  0  0
 28 31  1  0  0  0  0
 29 30  1  0  0  0  0
 31 32  2  0  0  0  0
 32 33  1  0  0  0  0
 29 33  2  0  0  0  0
 33 34  1  0  0  0  0
M  END
> <ID>
CHEBI:3614

> <NAME>
chlorhexidine

> <DEFINITION>
A bisbiguanide compound with a structure consisting of two (p-chlorophenyl)guanide units linked by a hexamethylene bridge.

> <STAR>
3

> <SYNONYM>
N,N'-Bis(4-chlorophenyl)-3,12-diimino-2,4,11,13-tetraazatetradecanediimidamide; Chlorhexidine; 1,1'-Hexamethylene bis(5-(p-chlorophenyl)biguanide)

> <IUPAC_NAME>
N',N'''''-hexane-1,6-diylbis[N-(4-chlorophenyl)(imidodicarbonimidic diamide)]

> <FORMULA>
C22H30Cl2N10

> <MASS>
505.44700

> <MONOISOTOPIC_MASS>
504.20320

> <CHARGE>
0

> <SMILES>
Clc1ccc(NC(=N)NC(=N)NCCCCCCNC(=N)NC(=N)Nc2ccc(Cl)cc2)cc1

> <INCHI>
InChI=1S/C22H30Cl2N10/c23-15-5-9-17(10-6-15)31-21(27)33-19(25)29-13-3-1-2-4-14-30-20(26)34-22(28)32-18-11-7-16(24)8-12-18/h5-12H,1-4,13-14H2,(H5,25,27,29,31,33)(H5,26,28,30,32,34)

> <INCHIKEY>
GHXZTYHSJHQHIJ-UHFFFAOYSA-N

> <BEILSTEIN_REGISTRY_NUMBER>
2826432

> <CAS_REGISTRY_NUMBER>
55-56-1

> <REAXYS_REGISTRY_NUMBER>
2826432

> <CHEMIDPLUS>
55-56-1

> <DRUGBANK_ACCESSION>
DB00878

> <KEGG_COMPOUND_ACCESSION>
C06902

> <KEGG_DRUG_ACCESSION>
D07668

> <LINCS_ACCESSION>
LSM-5633

> <WIKIPEDIA_ACCESSION>
Chlorhexidine

> <PUBMED_CITATION>
10848923; 11564456; 16238008; 17602516; 24384684

$$$$

Marvin  09220616462D          

 11 12  0  0  0  0            999 V2000
   -0.0574    0.4125    0.0000 C   0  0  0  0  0  0  0  0  0  0  0  0
   -0.0574   -0.4125    0.0000 C   0  0  0  0  0  0  0  0  0  0  0  0
   -0.7718   -0.8250    0.0000 C   0  0  0  0  0  0  0  0  0  0  0  0
   -1.4863   -0.4125    0.0000 C   0  0  0  0  0  0  0  0  0  0  0  0
   -1.4863    0.4125    0.0000 C   0  0  0  0  0  0  0  0  0  0  0  0
   -0.7718    0.8250    0.0000 C   0  0  0  0  0  0  0  0  0  0  0  0
    0.7273    0.6674    0.0000 C   0  0  0  0  0  0  0  0  0  0  0  0
    0.7273   -0.6674    0.0000 C   0  0  0  0  0  0  0  0  0  0  0  0
    1.2122    0.0000    0.0000 O   0  0  0  0  0  0  0  0  0  0  0  0
    0.9822    1.4521    0.0000 O   0  0  0  0  0  0  0  0  0  0  0  0
    0.9822   -1.4521    0.0000 O   0  0  0  0  0  0  0  0  0  0  0  0
  1  2  1  0  0  0  0
  1  6  2  0  0  0  0
  2  3  2  0  0  0  0
  3  4  1  0  0  0  0
  4  5  2  0  0  0  0
  5  6  1  0  0  0  0
  7  1  1  0  0  0  0
  8  2  1  0  0  0  0
  9  7  1  0  0  0  0
  8  9  1  0  0  0  0
 10  7  2  0  0  0  0
 11  8  2  0  0  0  0
M  END
> <ID>
CHEBI:36605

> <NAME>
phthalic anhydride

> <DEFINITION>
The cyclic dicarboxylic anhydride that is the anhydride of phthalic acid.

> <STAR>
3

> <SYNONYM>
Phthalsaeureanhydrid; phthalic anhydride; ortho-phthalic acid anhydride; o-phthalic acid anhydride; 1,3-phthalandione; 1,3-isobenzofurandione; 1,3-dioxophthalan; 1,2-benzenedicarboxylic acid anhydride

> <IUPAC_NAME>
2-benzofuran-1,3-dione

> <FORMULA>
C8H4O3

> <MASS>
148.11556

> <MONOISOTOPIC_MASS>
148.01604

> <CHARGE>
0

> <SMILES>
O=C1OC(=O)c2ccccc12

> <INCHI>
InChI=1S/C8H4O3/c9-7-5-3-1-2-4-6(5)8(10)11-7/h1-4H

> <INCHIKEY>
LGRFSURHDFAFJT-UHFFFAOYSA-N

> <BEILSTEIN_REGISTRY_NUMBER>
118515

> <CAS_REGISTRY_NUMBER>
85-44-9

> <GMELIN_REGISTRY_NUMBER>
27200

> <REAXYS_REGISTRY_NUMBER>
118515

> <CHEMIDPLUS>
85-44-9

> <NIST_CHEMISTRY_WEBBOOK>
85-44-9

> <WIKIPEDIA_ACCESSION>
Phthalic_anhydride

> <PUBMED_CITATION>
12269934; 1447476; 21901887; 21902644; 22222149; 22883110; 22887795; 23549605; 23680900

$$$$

Marvin  01120709432D          

 17 19  0  0  0  0            999 V2000
   -0.7145   -0.4125    0.0000 C   0  0  0  0  0  0  0  0  0  0  0  0
   -0.7145    0.4125    0.0000 C   0  0  0  0  0  0  0  0  0  0  0  0
    0.0000    0.8250    0.0000 C   0  0  0  0  0  0  0  0  0  0  0  0
   -1.4289   -0.8250    0.0000 C   0  0  0  0  0  0  0  0  0  0  0  0
    0.7145    0.4125    0.0000 C   0  0  0  0  0  0  0  0  0  0  0  0
    0.7145   -0.4125    0.0000 C   0  0  0  0  0  0  0  0  0  0  0  0
   -1.4289    0.8250    0.0000 C   0  0  0  0  0  0  0  0  0  0  0  0
   -2.1434   -0.4125    0.0000 C   0  0  0  0  0  0  0  0  0  0  0  0
   -2.1434    0.4125    0.0000 C   0  0  0  0  0  0  0  0  0  0  0  0
    1.4289   -0.8250    0.0000 C   0  0  0  0  0  0  0  0  0  0  0  0
    2.1434   -0.4125    0.0000 C   0  0  0  0  0  0  0  0  0  0  0  0
    1.4289    0.8250    0.0000 C   0  0  0  0  0  0  0  0  0  0  0  0
    1.4289    1.6500    0.0000 O   0  0  0  0  0  0  0  0  0  0  0  0
    2.1434    0.4125    0.0000 C   0  0  0  0  0  0  0  0  0  0  0  0
    2.8579    0.8250    0.0000 O   0  0  0  0  0  0  0  0  0  0  0  0
    0.0000   -0.8250    0.0000 C   0  0  0  0  0  0  0  0  0  0  0  0
    0.0000   -1.6500    0.0000 O   0  0  0  0  0  0  0  0  0  0  0  0
  2  1  1  0  0  0  0
 16  1  1  0  0  0  0
  4  1  2  0  0  0  0
  3  2  1  0  0  0  0
  7  2  2  0  0  0  0
  5  3  2  0  0  0  0
  6 16  2  0  0  0  0
  8  4  1  0  0  0  0
  6  5  1  0  0  0  0
 12  5  1  0  0  0  0
 10  6  1  0  0  0  0
  9  7  1  0  0  0  0
  9  8  2  0  0  0  0
 14 12  2  0  0  0  0
 11 10  2  0  0  0  0
 11 14  1  0  0  0  0
 12 13  1  0  0  0  0
 14 15  1  0  0  0  0
 16 17  1  0  0  0  0
M  END
> <ID>
CHEBI:37504

> <NAME>
anthrarobin

> <DEFINITION>
An anthracenetriol having the three hydroxy substituents at the 1-, 2- and 10-positions.

> <STAR>
3

> <SYNONYM>
anthrarobin; 3,4-dihydroxyanthranol; 3,4,9-trihydroxyanthracene; 1,2,10-trihydroxyanthracene; 1,2,10-anthratriol

> <IUPAC_NAME>
anthracene-1,2,10-triol

> <FORMULA>
C14H10O3

> <MASS>
226.22740

> <MONOISOTOPIC_MASS>
226.06299

> <CHARGE>
0

> <SMILES>
Oc1ccc2c(O)c3ccccc3cc2c1O

> <INCHI>
InChI=1S/C14H10O3/c15-12-6-5-10-11(14(12)17)7-8-3-1-2-4-9(8)13(10)16/h1-7,15-17H

> <INCHIKEY>
TZIQWQARHPGHIG-UHFFFAOYSA-N

> <BEILSTEIN_REGISTRY_NUMBER>
3531675

> <CAS_REGISTRY_NUMBER>
577-33-3

> <CHEMIDPLUS>
577-33-3

> <PUBMED_CITATION>
14331066; 15424984; 1650428; 8565505

$$$$

Marvin  05110715172D          

 11 11  0  0  1  0            999 V2000
    0.0000    1.2375    0.0000 C   0  0  0  0  0  0  0  0  0  0  0  0
   -0.7145    0.8250    0.0000 C   0  0  0  0  0  0  0  0  0  0  0  0
   -0.7145    0.0000    0.0000 C   0  0  0  0  0  0  0  0  0  0  0  0
    0.7145    0.0000    0.0000 C   0  0  0  0  0  0  0  0  0  0  0  0
    0.0000   -1.2375    0.0000 C   0  0  0  0  0  0  0  0  0  0  0  0
    0.7145   -1.6500    0.0000 C   0  0  0  0  0  0  0  0  0  0  0  0
   -0.7145   -1.6500    0.0000 C   0  0  0  0  0  0  0  0  0  0  0  0
    0.0000    2.0625    0.0000 C   0  0  0  0  0  0  0  0  0  0  0  0
    0.7145    0.8250    0.0000 C   0  0  0  0  0  0  0  0  0  0  0  0
    1.4290    1.2375    0.0000 O   0  0  0  0  0  0  0  0  0  0  0  0
    0.0000   -0.4125    0.0000 C   0  0  3  0  0  0  0  0  0  0  0  0
  1  9  1  0  0  0  0
  4  9  1  0  0  0  0
  2  1  2  0  0  0  0
  8  1  1  0  0  0  0
  3  2  1  0  0  0  0
 11  3  1  0  0  0  0
 11  4  1  0  0  0  0
 11  5  1  0  0  0  0
  6  5  1  0  0  0  0
  7  5  2  0  0  0  0
  9 10  2  0  0  0  0
M  END
> <ID>
CHEBI:38265

> <NAME>
carvone

> <DEFINITION>
A p-menthane monoterpenoid that consists of cyclohex-2-enone having methyl and isopropenyl substituents at positions 2 and 5, respectively.

> <STAR>
3

> <SYNONYM>
p-mentha-6,8-dien-2-one; Karvon; carvone; Carvon; carvol; 5-isopropenyl-2-methylcyclohex-2-en-1-one; 2-methyl-5-isopropenyl-2-cyclohexenone; 2-methyl-5-(prop-1-en-2-yl)cyclohex-2-enone; 2-methyl-5-(1-methylethenyl)-2-cyclohexen-1-one; 2-methyl-5-(1-methyl-1-ethenyl)-2-cyclohexen-1-one; 1-carvone

> <IUPAC_NAME>
p-mentha-1(6),8-dien-2-one; 2-methyl-5-(prop-1-en-2-yl)cyclohex-2-en-1-one

> <FORMULA>
C10H14O

> <MASS>
150.21756

> <MONOISOTOPIC_MASS>
150.10447

> <CHARGE>
0

> <SMILES>
CC(=C)C1CC=C(C)C(=O)C1

> <INCHI>
InChI=1S/C10H14O/c1-7(2)9-5-4-8(3)10(11)6-9/h4,9H,1,5-6H2,2-3H3

> <INCHIKEY>
ULDHMXUKGWMISQ-UHFFFAOYSA-N

> <BEILSTEIN_REGISTRY_NUMBER>
1364206

> <CAS_REGISTRY_NUMBER>
99-49-0

> <GMELIN_REGISTRY_NUMBER>
102300

> <REAXYS_REGISTRY_NUMBER>
1364206

> <CHEMIDPLUS>
99-49-0

> <METACYC_ACCESSION>
Carvones

> <NIST_CHEMISTRY_WEBBOOK>
99-49-0

> <WIKIPEDIA_ACCESSION>
Carvone

> <PUBMED_CITATION>
16638680; 19876560; 20233552; 21428701

$$$$

Marvin  08150812012D          

  8  8  0  0  0  0            999 V2000
    0.0000   -0.8250    0.0000 C   0  0  0  0  0  0  0  0  0  0  0  0
   -0.7145   -0.4125    0.0000 C   0  0  0  0  0  0  0  0  0  0  0  0
    0.7145   -0.4125    0.0000 C   0  0  0  0  0  0  0  0  0  0  0  0
   -0.7145    0.4125    0.0000 C   0  0  0  0  0  0  0  0  0  0  0  0
    0.0000    0.8250    0.0000 C   0  0  0  0  0  0  0  0  0  0  0  0
    0.7145    0.4125    0.0000 C   0  0  0  0  0  0  0  0  0  0  0  0
    1.4289    0.8250    0.0000 C   0  0  0  0  0  0  0  0  0  0  0  0
    2.1434    0.4125    0.0000 N   0  0  0  0  0  0  0  0  0  0  0  0
  1  2  1  0  0  0  0
  3  1  2  0  0  0  0
  2  4  2  0  0  0  0
  4  5  1  0  0  0  0
  5  6  2  0  0  0  0
  3  6  1  0  0  0  0
  6  7  1  0  0  0  0
  7  8  1  0  0  0  0
M  END
> <ID>
CHEBI:40538

> <NAME>
benzylamine

> <DEFINITION>
A primary amine compound having benzyl as the N-substituent. It has been isolated from  Moringa oleifera (horseradish tree).

> <STAR>
3

> <SYNONYM>
omega-aminotoluene; N-benzylamine; moringine; monobenzylamine; BENZYLAMINE; Benzenemethanamine; alpha-aminotoluene; (phenylmethyl)amine; (aminomethyl)benzene

> <IUPAC_NAME>
1-phenylmethanamine

> <FORMULA>
C7H9N

> <MASS>
107.15310

> <MONOISOTOPIC_MASS>
107.07350

> <CHARGE>
0

> <SMILES>
NCc1ccccc1

> <INCHI>
InChI=1S/C7H9N/c8-6-7-4-2-1-3-5-7/h1-5H,6,8H2

> <INCHIKEY>
WGQKYBSKWIADBV-UHFFFAOYSA-N

> <BEILSTEIN_REGISTRY_NUMBER>
741984

> <CAS_REGISTRY_NUMBER>
100-46-9

> <GMELIN_REGISTRY_NUMBER>
49783

> <REAXYS_REGISTRY_NUMBER>
741984

> <CHEMIDPLUS>
100-46-9

> <DRUGBANK_ACCESSION>
DB02464

> <HMDB_ACCESSION>
HMDB0033871

> <KEGG_COMPOUND_ACCESSION>
C15562

> <LINCS_ACCESSION>
LSM-3700

> <METACYC_ACCESSION>
BENZYLAMINE

> <NIST_CHEMISTRY_WEBBOOK>
100-46-9

> <PDBECHEM_ACCESSION>
ABN

> <WIKIPEDIA_ACCESSION>
Benzylamine

> <PUBMED_CITATION>
11305323; 12569987; 1388821; 17435633; 24129580

$$$$
ChEBI
  Marvin  05270817042D          

 27 28  0  0  1  0            999 V2000
   15.4528  -10.0145    0.0000 N   0  0  0  0  0  0  0  0  0  0  0  0
   15.4528   -9.1881    0.0000 C   0  0  1  0  0  0  0  0  0  0  0  0
   16.1654  -10.4427    0.0000 C   0  0  0  0  0  0  0  0  0  0  0  0
   14.6266  -10.0145    0.0000 C   0  0  0  0  0  0  0  0  0  0  0  0
   14.6266   -9.1881    0.0000 C   0  0  1  0  0  0  0  0  0  0  0  0
   16.1654   -8.7751    0.0000 S   0  0  0  0  0  0  0  0  0  0  0  0
   16.8893  -10.0219    0.0000 C   0  0  0  0  0  0  0  0  0  0  0  0
   16.1578  -11.2689    0.0000 C   0  0  0  0  0  0  0  0  0  0  0  0
   14.0430  -10.5943    0.0000 O   0  0  0  0  0  0  0  0  0  0  0  0
   13.3417   -8.8432    0.0000 N   0  0  0  0  0  0  0  0  0  0  0  0
   16.8893   -9.1881    0.0000 C   0  0  0  0  0  0  0  0  0  0  0  0
   17.6018  -10.4314    0.0000 C   0  0  0  0  0  0  0  0  0  0  0  0
   15.4415  -11.6707    0.0000 O   0  0  0  0  0  0  0  0  0  0  0  0
   16.8704  -11.6821    0.0000 O   0  0  0  0  0  0  0  0  0  0  0  0
   12.6293   -8.4339    0.0000 C   0  0  0  0  0  0  0  0  0  0  0  0
   18.3181  -10.0182    0.0000 O   0  0  0  0  0  0  0  0  0  0  0  0
   11.9167   -8.8432    0.0000 C   0  0  0  0  0  0  0  0  0  0  0  0
   12.6293   -7.6077    0.0000 O   0  0  0  0  0  0  0  0  0  0  0  0
   19.0307  -10.4314    0.0000 C   0  0  0  0  0  0  0  0  0  0  0  0
   11.2004   -8.4339    0.0000 C   0  0  0  0  0  0  0  0  0  0  0  0
   19.7433  -10.0182    0.0000 C   0  0  0  0  0  0  0  0  0  0  0  0
   19.0346  -11.2537    0.0000 O   0  0  0  0  0  0  0  0  0  0  0  0
   10.4879   -8.8432    0.0000 C   0  0  0  0  0  0  0  0  0  0  0  0
    9.7753   -8.4339    0.0000 C   0  0  0  0  0  0  0  0  0  0  0  0
   15.4528   -8.3657    0.0000 H   0  0  0  0  0  0  0  0  0  0  0  0
    9.0590   -8.8432    0.0000 O   0  0  0  0  0  0  0  0  0  0  0  0
    9.7753   -7.6089    0.0000 O   0  0  0  0  0  0  0  0  0  0  0  0
  1  2  1  0  0  0  0
  1  3  1  0  0  0  0
  1  4  1  0  0  0  0
  2  5  1  0  0  0  0
  2  6  1  0  0  0  0
  3  7  2  0  0  0  0
  3  8  1  0  0  0  0
  4  9  2  0  0  0  0
  5 10  1  1  0  0  0
  6 11  1  0  0  0  0
  7 12  1  0  0  0  0
  8 13  1  0  0  0  0
  8 14  2  0  0  0  0
 10 15  1  0  0  0  0
 12 16  1  0  0  0  0
 15 17  1  0  0  0  0
 15 18  2  0  0  0  0
 16 19  1  0  0  0  0
 17 20  1  0  0  0  0
 19 21  1  0  0  0  0
 19 22  2  0  0  0  0
 20 23  1  0  0  0  0
 23 24  1  0  0  0  0
 24 26  1  0  0  0  0
 24 27  2  0  0  0  0
  4  5  1  0  0  0  0
  7 11  1  0  0  0  0
  2 25  1  6  0  0  0
M  END
> <ID>
CHEBI:41425

> <NAME>
(7R)-7-(4-carboxybutanamido)cephalosporanic acid

> <STAR>
3

> <SYNONYM>
Glutaryl-7-aminocephalosporanic acid; Glutaryl-7-aca; Gl-7-Aca; 7BETA-(4CARBOXYBUTANAMIDO) CEPHALOSPORANIC ACID; 7-Glutarylaminocephalosporanate; (7R)-7-(4-Carboxybutanamido)cephalosporanate

> <IUPAC_NAME>
(6R,7R)-3-[(acetyloxy)methyl]-7-(4-carboxybutanamido)-8-oxo-5-thia-1-azabicyclo[4.2.0]oct-2-ene-2-carboxylic acid

> <FORMULA>
C15H18N2O8S

> <MASS>
386.37810

> <MONOISOTOPIC_MASS>
386.07839

> <CHARGE>
0

> <SMILES>
[H][C@]12SCC(COC(C)=O)=C(N1C(=O)[C@H]2NC(=O)CCCC(O)=O)C(O)=O

> <INCHI>
InChI=1S/C15H18N2O8S/c1-7(18)25-5-8-6-26-14-11(13(22)17(14)12(8)15(23)24)16-9(19)3-2-4-10(20)21/h11,14H,2-6H2,1H3,(H,16,19)(H,20,21)(H,23,24)/t11-,14-/m1/s1

> <INCHIKEY>
IXUSDMGLUJZNFO-BXUZGUMPSA-N

> <BEILSTEIN_REGISTRY_NUMBER>
1183847

> <CAS_REGISTRY_NUMBER>
27920-90-7

> <CHEMIDPLUS>
27920-90-7

> <KEGG_COMPOUND_ACCESSION>
C15666

> <PDBECHEM_ACCESSION>
CEN

$$$$

Marvin  02031116202D          

 13 13  0  0  0  0            999 V2000
   -0.7145    0.4125    0.0000 C   0  0  0  0  0  0  0  0  0  0  0  0
   -0.7145   -0.4125    0.0000 C   0  0  0  0  0  0  0  0  0  0  0  0
    0.7145   -0.4125    0.0000 C   0  0  0  0  0  0  0  0  0  0  0  0
    0.0000    0.8250    0.0000 C   0  0  0  0  0  0  0  0  0  0  0  0
    0.7145    0.4125    0.0000 C   0  0  0  0  0  0  0  0  0  0  0  0
    0.0000   -0.8250    0.0000 C   0  0  0  0  0  0  0  0  0  0  0  0
    0.0000    1.6500    0.0000 O   0  0  0  0  0  0  0  0  0  0  0  0
    2.1434    0.4125    0.0000 O   0  5  0  0  0  0  0  0  0  0  0  0
    0.7145   -2.0625    0.0000 O   0  5  0  0  0  0  0  0  0  0  0  0
    1.4289    0.8250    0.0000 N   0  3  0  0  0  0  0  0  0  0  0  0
    1.4289    1.6500    0.0000 O   0  0  0  0  0  0  0  0  0  0  0  0
    0.0000   -1.6500    0.0000 N   0  3  0  0  0  0  0  0  0  0  0  0
   -0.7145   -2.0625    0.0000 O   0  0  0  0  0  0  0  0  0  0  0  0
  1  2  2  0  0  0  0
  4  1  1  0  0  0  0
  4  7  1  0  0  0  0
  5  4  2  0  0  0  0
  3  5  1  0  0  0  0
  5 10  1  0  0  0  0
  6  2  1  0  0  0  0
  6  3  2  0  0  0  0
  6 12  1  0  0  0  0
  8 10  1  0  0  0  0
  9 12  1  0  0  0  0
 10 11  2  0  0  0  0
 12 13  2  0  0  0  0
M  CHG  4   8  -1   9  -1  10   1  12   1
M  END
> <ID>
CHEBI:42017

> <NAME>
2,4-dinitrophenol

> <DEFINITION>
A dinitrophenol having the nitro groups at the 2- and 4-positions.

> <STAR>
3

> <SECONDARY_ID>
CHEBI:42013; CHEBI:918

> <SYNONYM>
alpha-dinitrophenol; 2,4-DNP; 2,4-DINITROPHENOL; 2,4-Dinitrophenol; 1-hydroxy-2,4-dinitrobenzene

> <IUPAC_NAME>
2,4-dinitrophenol

> <FORMULA>
C6H4N2O5

> <MASS>
184.10640

> <MONOISOTOPIC_MASS>
184.01202

> <CHARGE>
0

> <SMILES>
Oc1ccc(cc1[N+]([O-])=O)[N+]([O-])=O

> <INCHI>
InChI=1S/C6H4N2O5/c9-6-2-1-4(7(10)11)3-5(6)8(12)13/h1-3,9H

> <INCHIKEY>
UFBJCMHMOXMLKC-UHFFFAOYSA-N

> <BEILSTEIN_REGISTRY_NUMBER>
1246142

> <CAS_REGISTRY_NUMBER>
51-28-5

> <GMELIN_REGISTRY_NUMBER>
103005

> <REAXYS_REGISTRY_NUMBER>
1246142

> <CHEMIDPLUS>
51-28-5

> <DRUGBANK_ACCESSION>
DB04528

> <KEGG_COMPOUND_ACCESSION>
C02496

> <LINCS_ACCESSION>
LSM-20951

> <METACYC_ACCESSION>
CPD-8179

> <NIST_CHEMISTRY_WEBBOOK>
51-28-5

> <PDBECHEM_ACCESSION>
DNF

> <WIKIPEDIA_ACCESSION>
2,4-Dinitrophenol

> <PUBMED_CITATION>
10509480; 10888472; 13532746; 15307184; 16661637; 25281383; 5959282; 9129253

$$$$

Marvin  01291016232D          

 32 34  0  0  1  0            999 V2000
    9.0495   -5.0053    0.0000 N   0  0  0  0  0  0  0  0  0  0  0  0
    9.8341   -3.9254    0.0000 S   0  0  0  0  0  0  0  0  0  0  0  0
   11.0335   -5.0053    0.0000 C   0  0  0  0  0  0  0  0  0  0  0  0
   10.3190   -4.5928    0.0000 C   0  0  0  0  0  0  0  0  0  0  0  0
   11.0335   -4.1803    0.0000 C   0  0  0  0  0  0  0  0  0  0  0  0
    9.8341   -5.2603    0.0000 C   0  0  2  0  0  0  0  0  0  0  0  0
   10.8960   -6.2164    0.0000 O   0  0  0  0  0  0  0  0  0  0  0  0
   10.0890   -6.0449    0.0000 C   0  0  0  0  0  0  0  0  0  0  0  0
    9.5370   -6.6580    0.0000 O   0  0  0  0  0  0  0  0  0  0  0  0
    8.3351   -2.9427    0.0000 N   0  0  0  0  0  0  0  0  0  0  0  0
    7.6206   -2.5302    0.0000 C   0  0  0  0  0  0  0  0  0  0  0  0
    6.9061   -2.9427    0.0000 O   0  0  0  0  0  0  0  0  0  0  0  0
    7.6206   -1.7053    0.0000 C   0  0  0  0  0  0  0  0  0  0  0  0
    6.9062   -0.4677    0.0000 C   0  0  0  0  0  0  0  0  0  0  0  0
    6.1917   -0.0552    0.0000 C   0  0  0  0  0  0  0  0  0  0  0  0
    5.4772   -0.4676    0.0000 C   0  0  0  0  0  0  0  0  0  0  0  0
    5.4772   -1.2927    0.0000 C   0  0  0  0  0  0  0  0  0  0  0  0
    6.1917   -1.7052    0.0000 C   0  0  0  0  0  0  0  0  0  0  0  0
    6.9062   -1.2927    0.0000 C   0  0  0  0  0  0  0  0  0  0  0  0
    9.0495   -4.1803    0.0000 C   0  0  2  0  0  0  0  0  0  0  0  0
    9.0495   -3.3553    0.0000 H   0  0  0  0  0  0  0  0  0  0  0  0
    8.3351   -3.7678    0.0000 C   0  0  1  0  0  0  0  0  0  0  0  0
    7.6206   -4.1803    0.0000 C   0  0  0  0  0  0  0  0  0  0  0  0
    6.9061   -3.7678    0.0000 O   0  0  0  0  0  0  0  0  0  0  0  0
    7.6206   -5.0053    0.0000 N   0  0  0  0  0  0  0  0  0  0  0  0
    6.9061   -5.4178    0.0000 C   0  0  0  0  0  0  0  0  0  0  0  0
    6.9061   -6.2428    0.0000 C   0  0  0  0  0  0  0  0  0  0  0  0
    6.1917   -6.6553    0.0000 C   0  0  0  0  0  0  0  0  0  0  0  0
    6.1917   -7.4803    0.0000 C   0  0  0  0  0  0  0  0  0  0  0  0
    6.9061   -7.8928    0.0000 C   0  0  0  0  0  0  0  0  0  0  0  0
    7.6206   -7.4803    0.0000 C   0  0  0  0  0  0  0  0  0  0  0  0
    7.6206   -6.6553    0.0000 C   0  0  0  0  0  0  0  0  0  0  0  0
  1  6  1  0  0  0  0
 20  1  1  0  0  0  0
  2 20  1  0  0  0  0
  2  4  1  0  0  0  0
  6  4  1  0  0  0  0
  4  3  1  0  0  0  0
  4  5  1  0  0  0  0
  6  8  1  6  0  0  0
  8  7  1  0  0  0  0
  8  9  2  0  0  0  0
 22 10  1  1  0  0  0
 10 11  1  0  0  0  0
 11 13  1  0  0  0  0
 11 12  2  0  0  0  0
 13 19  1  0  0  0  0
 14 15  2  0  0  0  0
 14 19  1  0  0  0  0
 15 16  1  0  0  0  0
 16 17  2  0  0  0  0
 17 18  1  0  0  0  0
 18 19  2  0  0  0  0
 20 21  1  6  0  0  0
 20 22  1  0  0  0  0
 22 23  1  0  0  0  0
 23 24  2  0  0  0  0
 23 25  1  0  0  0  0
 25 26  1  0  0  0  0
 26 27  1  0  0  0  0
 27 28  2  0  0  0  0
 27 32  1  0  0  0  0
 28 29  1  0  0  0  0
 29 30  2  0  0  0  0
 30 31  1  0  0  0  0
 31 32  2  0  0  0  0
M  END
> <ID>
CHEBI:42719

> <NAME>
benzylpenicilloyl-benzylamine

> <DEFINITION>
A monocarboxylic acid amide formed between benzylpenicillin and benzylamine.

> <STAR>
3

> <SYNONYM>
BPO-BA; (2R,4S)-2-[(R)-BENZYLCARBAMOYL-PHENYLACETYL-METHYL]-5,5-DIMETHYL-THIAZOLIDINE-4-CARBOXYLIC ACID

> <IUPAC_NAME>
(2R,4S)-2-{(1R)-2-(benzylamino)-2-oxo-1-[(phenylacetyl)amino]ethyl}-5,5-dimethyl-1,3-thiazolidine-4-carboxylic acid

> <FORMULA>
C23H27N3O4S

> <MASS>
441.54300

> <MONOISOTOPIC_MASS>
441.17223

> <CHARGE>
0

> <SMILES>
[H][C@]1(N[C@@H](C(O)=O)C(C)(C)S1)[C@H](NC(=O)Cc1ccccc1)C(=O)NCc1ccccc1

> <INCHI>
InChI=1S/C23H27N3O4S/c1-23(2)19(22(29)30)26-21(31-23)18(20(28)24-14-16-11-7-4-8-12-16)25-17(27)13-15-9-5-3-6-10-15/h3-12,18-19,21,26H,13-14H2,1-2H3,(H,24,28)(H,25,27)(H,29,30)/t18-,19+,21-/m1/s1

> <INCHIKEY>
UDMBRVGTYILYDX-SVFBPWRDSA-N

> <BEILSTEIN_REGISTRY_NUMBER>
632045

> <REAXYS_REGISTRY_NUMBER>
632045

> <DRUGBANK_ACCESSION>
DB07806

> <PDBECHEM_ACCESSION>
G23

> <PUBMED_CITATION>
1955637; 3240436; 7544181

$$$$

Marvin  03020912412D          

 31 34  0  0  0  0            999 V2000
   -0.8250    0.4125    0.0000 C   0  0  2  0  0  0  0  0  0  0  0  0
   -0.8250   -0.4125    0.0000 C   0  0  0  0  0  0  0  0  0  0  0  0
    0.0000    0.4125    0.0000 C   0  0  2  0  0  0  0  0  0  0  0  0
    0.0000   -0.4125    0.0000 N   0  0  0  0  0  0  0  0  0  0  0  0
    0.7846   -0.6674    0.0000 C   0  0  2  0  0  0  0  0  0  0  0  0
    1.2695    0.0000    0.0000 C   0  0  0  0  0  0  0  0  0  0  0  0
    0.7846    0.6674    0.0000 S   0  0  0  0  0  0  0  0  0  0  0  0
    1.9883   -0.4050    0.0000 C   0  0  0  0  0  0  0  0  0  0  0  0
    1.9883    0.4050    0.0000 C   0  0  0  0  0  0  0  0  0  0  0  0
    1.0396   -1.4521    0.0000 C   0  0  0  0  0  0  0  0  0  0  0  0
    1.8465   -1.6236    0.0000 O   0  0  0  0  0  0  0  0  0  0  0  0
    0.4875   -2.0652    0.0000 O   0  0  0  0  0  0  0  0  0  0  0  0
   -1.5395    0.8250    0.0000 N   0  0  0  0  0  0  0  0  0  0  0  0
   -2.2539    0.4125    0.0000 C   0  0  0  0  0  0  0  0  0  0  0  0
   -2.2539   -0.2475    0.0000 O   0  0  0  0  0  0  0  0  0  0  0  0
   -1.4084   -0.9959    0.0000 O   0  0  0  0  0  0  0  0  0  0  0  0
    0.0000    1.2375    0.0000 H   0  0  0  0  0  0  0  0  0  0  0  0
   -3.8600    1.8184    0.0000 O   0  0  0  0  0  0  0  0  0  0  0  0
   -4.2736    1.1046    0.0000 N   0  0  0  0  0  0  0  0  0  0  0  0
   -3.7226    0.4907    0.0000 C   0  0  0  0  0  0  0  0  0  0  0  0
   -2.9684    0.8250    0.0000 C   0  0  0  0  0  0  0  0  0  0  0  0
   -3.0533    1.6456    0.0000 C   0  0  0  0  0  0  0  0  0  0  0  0
   -3.9361   -0.3062    0.0000 C   0  0  0  0  0  0  0  0  0  0  0  0
   -4.7231   -0.5539    0.0000 C   0  0  0  0  0  0  0  0  0  0  0  0
   -4.9020   -1.3593    0.0000 C   0  0  0  0  0  0  0  0  0  0  0  0
   -4.2941   -1.9170    0.0000 C   0  0  0  0  0  0  0  0  0  0  0  0
   -3.5071   -1.6693    0.0000 C   0  0  0  0  0  0  0  0  0  0  0  0
   -3.3282   -0.8639    0.0000 C   0  0  0  0  0  0  0  0  0  0  0  0
   -2.5313   -0.6504    0.0000 Cl  0  0  0  0  0  0  0  0  0  0  0  0
   -5.3064    0.0294    0.0000 Cl  0  0  0  0  0  0  0  0  0  0  0  0
   -2.4699    2.2289    0.0000 C   0  0  0  0  0  0  0  0  0  0  0  0
  1 13  1  1  0  0  0
  1  2  1  0  0  0  0
  2 16  2  0  0  0  0
  2  4  1  0  0  0  0
  4  5  1  0  0  0  0
  3  1  1  0  0  0  0
  3  4  1  0  0  0  0
  3  7  1  0  0  0  0
  5  6  1  0  0  0  0
  6  7  1  0  0  0  0
  6  8  1  0  0  0  0
  6  9  1  0  0  0  0
  5 10  1  6  0  0  0
 10 11  1  0  0  0  0
 10 12  2  0  0  0  0
 13 14  1  0  0  0  0
 14 15  2  0  0  0  0
  3 17  1  6  0  0  0
 14 21  1  0  0  0  0
 18 19  1  0  0  0  0
 19 20  2  0  0  0  0
 20 21  1  0  0  0  0
 21 22  2  0  0  0  0
 18 22  1  0  0  0  0
 20 23  1  0  0  0  0
 23 24  2  0  0  0  0
 24 25  1  0  0  0  0
 25 26  2  0  0  0  0
 26 27  1  0  0  0  0
 27 28  2  0  0  0  0
 23 28  1  0  0  0  0
 28 29  1  0  0  0  0
 24 30  1  0  0  0  0
 22 31  1  0  0  0  0
M  END
> <ID>
CHEBI:4511

> <NAME>
dicloxacillin

> <DEFINITION>
A penicillin that is 6-aminopenicillanic acid in which one of the amino hydrogens is replaced by a 3-(2,6-dichlorophenyl)-5-methyl-1,2-oxazol-4-yl]formyl group.

> <STAR>
3

> <SYNONYM>
Dicloxacillin; (2S,5R,6R)-6-({[3-(2,6-dichlorophenyl)-5-methyl-1,2-oxazol-4-yl]carbonyl}amino)-3,3-dimethyl-7-oxo-4-thia-1-azabicyclo[3.2.0]heptane-2-carboxylic acid

> <IUPAC_NAME>
6beta-{[3-(2,6-dichlorophenyl)-5-methyl-1,2-oxazol-4-yl]carboxamido}-2,2-dimethylpenam-3alpha-carboxylic acid

> <INN>
dicloxacillinum; dicloxacilline; dicloxacilina

> <FORMULA>
C19H17Cl2N3O5S

> <MASS>
470.32600

> <MONOISOTOPIC_MASS>
469.02660

> <CHARGE>
0

> <SMILES>
[H][C@]12SC(C)(C)[C@@H](N1C(=O)[C@H]2NC(=O)c1c(C)onc1-c1c(Cl)cccc1Cl)C(O)=O

> <INCHI>
InChI=1S/C19H17Cl2N3O5S/c1-7-10(12(23-29-7)11-8(20)5-4-6-9(11)21)15(25)22-13-16(26)24-14(18(27)28)19(2,3)30-17(13)24/h4-6,13-14,17H,1-3H3,(H,22,25)(H,27,28)/t13-,14+,17-/m1/s1

> <INCHIKEY>
YFAGHNZHGGCZAX-JKIFEVAISA-N

> <BEILSTEIN_REGISTRY_NUMBER>
1233662

> <CAS_REGISTRY_NUMBER>
3116-76-5

> <REAXYS_REGISTRY_NUMBER>
1233662

> <DRUGBANK_ACCESSION>
DB00485

> <KEGG_COMPOUND_ACCESSION>
C06950

> <KEGG_DRUG_ACCESSION>
D02348

> <LINCS_ACCESSION>
LSM-5234

> <WIKIPEDIA_ACCESSION>
Dicloxacillin

> <PUBMED_CITATION>
26962156; 28721014; 29017833; 29105855; 29253094; 29504695

$$$$

Marvin  11090911552D          

  7  7  0  0  0  0            999 V2000
   -0.6482   -1.0313    0.0000 C   0  0  0  0  0  0  0  0  0  0  0  0
   -1.3627   -0.6188    0.0000 C   0  0  0  0  0  0  0  0  0  0  0  0
   -1.3627    0.2063    0.0000 C   0  0  0  0  0  0  0  0  0  0  0  0
   -0.6482    0.6188    0.0000 N   0  0  0  0  0  0  0  0  0  0  0  0
    0.0663    0.2063    0.0000 C   0  0  0  0  0  0  0  0  0  0  0  0
    0.0663   -0.6188    0.0000 C   0  0  0  0  0  0  0  0  0  0  0  0
    0.7807    0.6188    0.0000 S   0  0  0  0  0  0  0  0  0  0  0  0
  1  2  1  0  0  0  0
  1  6  2  0  0  0  0
  2  3  2  0  0  0  0
  3  4  1  0  0  0  0
  4  5  2  0  0  0  0
  5  6  1  0  0  0  0
  5  7  1  0  0  0  0
M  END
> <ID>
CHEBI:45223

> <NAME>
pyridine-2-thiol

> <DEFINITION>
Pyridine substituted at C-2 by a sulfanyl group.

> <STAR>
3

> <SYNONYM>
2-pyridylthiol; 2-pyridinylthiol; 2-PYRIDINETHIOL; 2-Pyridinethiol; 2-Mercaptopyridine

> <IUPAC_NAME>
pyridine-2-thiol

> <FORMULA>
C5H5NS

> <MASS>
111.16500

> <MONOISOTOPIC_MASS>
111.01427

> <CHARGE>
0

> <SMILES>
Sc1ccccn1

> <INCHI>
InChI=1S/C5H5NS/c7-5-3-1-2-4-6-5/h1-4H,(H,6,7)

> <INCHIKEY>
WHMDPDGBKYUEMW-UHFFFAOYSA-N

> <BEILSTEIN_REGISTRY_NUMBER>
105787

> <CAS_REGISTRY_NUMBER>
73018-10-7

> <REAXYS_REGISTRY_NUMBER>
105787

> <CHEMIDPLUS>
73018-10-7

> <DRUGBANK_ACCESSION>
DB03329

> <NIST_CHEMISTRY_WEBBOOK>
73018-10-7

> <PDBECHEM_ACCESSION>
PYS

> <PUBMED_CITATION>
2215478; 22511503; 26568413; 3654008

$$$$

Mrv0541 03091512202D          

 13 13  0  0  0  0            999 V2000
    7.4862   -6.9573    0.0000 C   0  0  0  0  0  0  0  0  0  0  0  0
    6.7713   -7.3663    0.0000 C   0  0  0  0  0  0  0  0  0  0  0  0
    8.2012   -7.3698    0.0000 C   0  0  0  0  0  0  0  0  0  0  0  0
    7.4828   -6.1358    0.0000 C   0  0  0  0  0  0  0  0  0  0  0  0
    6.7678   -8.1948    0.0000 C   0  0  0  0  0  0  0  0  0  0  0  0
    8.2012   -8.1913    0.0000 C   0  0  0  0  0  0  0  0  0  0  0  0
    8.1943   -5.7198    0.0000 C   0  0  0  0  0  0  0  0  0  0  0  0
    7.4862   -8.6107    0.0000 C   0  0  0  0  0  0  0  0  0  0  0  0
    8.1943   -4.8948    0.0000 C   0  0  0  0  0  0  0  0  0  0  0  0
    7.4862   -9.4357    0.0000 O   0  0  0  0  0  0  0  0  0  0  0  0
    7.4759   -4.4858    0.0000 O   0  0  0  0  0  0  0  0  0  0  0  0
    8.9148   -8.6000    0.0000 O   0  0  0  0  0  0  0  0  0  0  0  0
    9.6256   -8.1863    0.0000 C   0  0  0  0  0  0  0  0  0  0  0  0
  1  3  2  0  0  0  0
  1  4  1  0  0  0  0
  2  5  2  0  0  0  0
  3  6  1  0  0  0  0
  4  7  1  0  0  0  0
  5  8  1  0  0  0  0
  7  9  1  0  0  0  0
  8 10  1  0  0  0  0
  9 11  1  0  0  0  0
  6  8  2  0  0  0  0
  6 12  1  0  0  0  0
  1  2  1  0  0  0  0
 12 13  1  0  0  0  0
M  END
> <ID>
CHEBI:4559

> <NAME>
dihydroconiferyl alcohol

> <DEFINITION>
A member of class of phenols that is 2-methoxyphenol substituted by a 3-hydroxypropyl group at position 4.

> <STAR>
3

> <SYNONYM>
guaiacyl propanol; Dihydroconiferyl alcohol; 3-(4-hydroxy-3-methoxyphenyl)-propan-1-ol; 3-(4-guaiacyl)propanol

> <IUPAC_NAME>
4-(3-hydroxypropyl)-2-methoxyphenol

> <FORMULA>
C10H14O3

> <MASS>
182.21640

> <MONOISOTOPIC_MASS>
182.09429

> <CHARGE>
0

> <SMILES>
COc1cc(CCCO)ccc1O

> <INCHI>
InChI=1S/C10H14O3/c1-13-10-7-8(3-2-6-11)4-5-9(10)12/h4-5,7,11-12H,2-3,6H2,1H3

> <INCHIKEY>
MWOMNLDJNQWJMK-UHFFFAOYSA-N

> <CAS_REGISTRY_NUMBER>
2305-13-7

> <REAXYS_REGISTRY_NUMBER>
2048960

> <CHEMIDPLUS>
2305-13-7

> <KEGG_COMPOUND_ACCESSION>
C10448

> <KNAPSACK_ACCESSION>
C00002736

> <LINCS_ACCESSION>
LSM-37090

> <METACYC_ACCESSION>
CPD-94

> <NIST_CHEMISTRY_WEBBOOK>
2305-13-7

> <PUBMED_CITATION>
21664814; 23944031

$$$$

Marvin  10040717112D          

 20 19  0  0  0  0            999 V2000
   -0.3572    0.2063    0.0000 C   0  0  0  0  0  0  0  0  0  0  0  0
    0.3572   -0.2062    0.0000 C   0  0  0  0  0  0  0  0  0  0  0  0
    1.0717    0.2063    0.0000 C   0  0  0  0  0  0  0  0  0  0  0  0
   -1.0717   -0.2063    0.0000 C   0  0  0  0  0  0  0  0  0  0  0  0
    3.2151   -0.2062    0.0000 C   0  0  0  0  0  0  0  0  0  0  0  0
    3.9296    1.0313    0.0000 C   0  0  0  0  0  0  0  0  0  0  0  0
    4.6441   -0.2062    0.0000 C   0  0  0  0  0  0  0  0  0  0  0  0
    2.5006    0.2063    0.0000 C   0  0  0  0  0  0  0  0  0  0  0  0
    1.7862   -0.2062    0.0000 O   0  0  0  0  0  0  0  0  0  0  0  0
    1.0717    1.0313    0.0000 O   0  0  0  0  0  0  0  0  0  0  0  0
   -1.7862    0.2062    0.0000 O   0  0  0  0  0  0  0  0  0  0  0  0
   -1.0717   -1.0313    0.0000 O   0  0  0  0  0  0  0  0  0  0  0  0
   -2.5006   -0.2063    0.0000 C   0  0  0  0  0  0  0  0  0  0  0  0
   -3.2151    0.2062    0.0000 C   0  0  0  0  0  0  0  0  0  0  0  0
   -3.9296   -1.0313    0.0000 C   0  0  0  0  0  0  0  0  0  0  0  0
   -4.6441    0.2063    0.0000 C   0  0  0  0  0  0  0  0  0  0  0  0
   -3.9296   -0.2063    0.0000 N   0  3  3  0  0  0  0  0  0  0  0  0
   -4.6441   -0.6188    0.0000 C   0  0  0  0  0  0  0  0  0  0  0  0
    3.9296    0.2063    0.0000 N   0  3  3  0  0  0  0  0  0  0  0  0
    4.6441    0.6188    0.0000 C   0  0  0  0  0  0  0  0  0  0  0  0
  2  1  1  0  0  0  0
  3  2  1  0  0  0  0
  9  3  1  0  0  0  0
  3 10  2  0  0  0  0
  1  4  1  0  0  0  0
  4 11  1  0  0  0  0
  4 12  2  0  0  0  0
 19  5  1  0  0  0  0
  5  8  1  0  0  0  0
 19  6  1  0  0  0  0
 19  7  1  0  0  0  0
  8  9  1  0  0  0  0
 11 13  1  0  0  0  0
 13 14  1  0  0  0  0
 14 17  1  0  0  0  0
 17 15  1  0  0  0  0
 17 16  1  0  0  0  0
 17 18  1  0  0  0  0
 19 20  1  0  0  0  0
M  CHG  2  17   1  19   1
M  END
> <ID>
CHEBI:45652

> <NAME>
succinylcholine

> <DEFINITION>
A quaternary ammonium ion that is the bis-choline ester of succinic acid.

> <STAR>
3

> <SECONDARY_ID>
CHEBI:45650; CHEBI:133060; CHEBI:9311

> <SYNONYM>
Suxamethonium; suxamethonium; Succinyldicholine; Succinylcholine; Succinylbischoline; Succinoylcholine; Succinocholine; succinic acid, diester with choline; Dicholine succinate; 2,2'-[(1,4-DIOXOBUTANE-1,4-DIYL)BIS(OXY)]BIS(N,N,N-TRIMETHYLETHANAMINIUM)

> <IUPAC_NAME>
2,2'-[(1,4-dioxobutane-1,4-diyl)bis(oxy)]bis(N,N,N-trimethylethanaminium)

> <FORMULA>
C14H30N2O4

> <MASS>
290.39908

> <MONOISOTOPIC_MASS>
290.21946

> <CHARGE>
2

> <SMILES>
C[N+](C)(C)CCOC(=O)CCC(=O)OCC[N+](C)(C)C

> <INCHI>
InChI=1S/C14H30N2O4/c1-15(2,3)9-11-19-13(17)7-8-14(18)20-12-10-16(4,5)6/h7-12H2,1-6H3/q+2

> <INCHIKEY>
AXOIZCJOOAYSMI-UHFFFAOYSA-N

> <BEILSTEIN_REGISTRY_NUMBER>
1805311

> <CAS_REGISTRY_NUMBER>
306-40-1

> <REAXYS_REGISTRY_NUMBER>
1805311

> <CHEMIDPLUS>
306-40-1

> <DRUGBANK_ACCESSION>
DB00202

> <HMDB_ACCESSION>
HMDB0014347

> <KEGG_COMPOUND_ACCESSION>
C07546

> <NIST_CHEMISTRY_WEBBOOK>
306-40-1

> <PDBECHEM_ACCESSION>
SCK

> <PUBMED_CITATION>
13063382; 17667569; 23223104; 23838346; 24018151; 29368335; 6196640; 7526642; 11123992; 4032432; 9435889

$$$$

Marvin  09080816532D          

  9  9  0  0  0  0            999 V2000
   -0.2169   -0.6674    0.0000 S   0  0  0  0  0  0  0  0  0  0  0  0
   -0.7018    0.0000    0.0000 C   0  0  0  0  0  0  0  0  0  0  0  0
   -0.2169    0.6674    0.0000 C   0  0  0  0  0  0  0  0  0  0  0  0
    0.5678   -0.4125    0.0000 C   0  0  0  0  0  0  0  0  0  0  0  0
    0.5678    0.4125    0.0000 C   0  0  0  0  0  0  0  0  0  0  0  0
    2.7112   -0.8250    0.0000 O   0  0  0  0  0  0  0  0  0  0  0  0
    1.9967   -0.4125    0.0000 C   0  0  0  0  0  0  0  0  0  0  0  0
    1.2822   -0.8250    0.0000 C   0  0  0  0  0  0  0  0  0  0  0  0
    1.9967    0.4125    0.0000 O   0  0  0  0  0  0  0  0  0  0  0  0
  1  2  1  0  0  0  0
  2  3  2  0  0  0  0
  4  1  1  0  0  0  0
  8  4  1  0  0  0  0
  5  3  1  0  0  0  0
  4  5  2  0  0  0  0
  7  6  1  0  0  0  0
  7  9  2  0  0  0  0
  7  8  1  0  0  0  0
M  END
> <ID>
CHEBI:45807

> <NAME>
2-thienylacetic acid

> <DEFINITION>
A thiophene compound having a carboxymethyl group at the 2-position.

> <STAR>
3

> <SECONDARY_ID>
CHEBI:45803; CHEBI:9540

> <SYNONYM>
THIOPHENEACETIC ACID; thiophene-2-acetic acid; 2-thiopheneacetic acid; 2-Thiopheneacetic acid; 2-Thienylacetic acid

> <IUPAC_NAME>
2-(thiophen-2-yl)acetic acid

> <FORMULA>
C6H6O2S

> <MASS>
142.17664

> <MONOISOTOPIC_MASS>
142.00885

> <CHARGE>
0

> <SMILES>
OC(=O)Cc1cccs1

> <INCHI>
InChI=1S/C6H6O2S/c7-6(8)4-5-2-1-3-9-5/h1-3H,4H2,(H,7,8)

> <INCHIKEY>
SMJRBWINMFUUDS-UHFFFAOYSA-N

> <BEILSTEIN_REGISTRY_NUMBER>
114551

> <CAS_REGISTRY_NUMBER>
1918-77-0

> <GMELIN_REGISTRY_NUMBER>
101935

> <REAXYS_REGISTRY_NUMBER>
114551

> <CHEMIDPLUS>
1918-77-0

> <KEGG_COMPOUND_ACCESSION>
C02595

> <NIST_CHEMISTRY_WEBBOOK>
1918-77-0

> <PDBECHEM_ACCESSION>
SPA

> <PUBMED_CITATION>
12569987; 2083978; 23336301

$$$$

Ketcher 04151616032D 1   1.00000     0.00000     0

 21 22  0     0  0            999 V2000
   15.8442  -12.6819    0.0000 C   0  0  0  0  0  0  0  0  0  0  0  0
   16.7101  -12.1819    0.0000 C   0  0  0  0  0  0  0  0  0  0  0  0
   15.8442  -13.6818    0.0000 C   0  0  0  0  0  0  0  0  0  0  0  0
   14.9783  -12.1819    0.0000 C   0  0  0  0  0  0  0  0  0  0  0  0
   17.5762  -12.6819    0.0000 C   0  0  0  0  0  0  0  0  0  0  0  0
   14.9783  -14.1818    0.0000 C   0  0  0  0  0  0  0  0  0  0  0  0
   14.1123  -12.6819    0.0000 C   0  0  0  0  0  0  0  0  0  0  0  0
   18.4421  -12.1819    0.0000 C   0  0  0  0  0  0  0  0  0  0  0  0
   17.5762  -13.6818    0.0000 C   0  0  0  0  0  0  0  0  0  0  0  0
   14.1123  -13.6818    0.0000 C   0  0  0  0  0  0  0  0  0  0  0  0
   19.3080  -12.6819    0.0000 N   0  0  0  0  0  0  0  0  0  0  0  0
   18.4421  -11.1820    0.0000 N   0  0  0  0  0  0  0  0  0  0  0  0
   18.4421  -14.1818    0.0000 N   0  0  0  0  0  0  0  0  0  0  0  0
   19.3080  -13.6818    0.0000 C   0  0  0  0  0  0  0  0  0  0  0  0
   20.1740  -14.1818    0.0000 N   0  0  0  0  0  0  0  0  0  0  0  0
   13.2463  -14.1818    0.0000 O   0  0  0  0  0  0  0  0  0  0  0  0
   13.2463  -15.1816    0.0000 C   0  0  0  0  0  0  0  0  0  0  0  0
   14.9783  -15.1816    0.0000 O   0  0  0  0  0  0  0  0  0  0  0  0
   15.8442  -15.6816    0.0000 C   0  0  0  0  0  0  0  0  0  0  0  0
   13.2463  -12.1819    0.0000 O   0  0  0  0  0  0  0  0  0  0  0  0
   13.2523  -11.1801    0.0000 C   0  0  0  0  0  0  0  0  0  0  0  0
  1  2  1  0     0  0
  1  3  1  0     0  0
  1  4  2  0     0  0
  2  5  1  0     0  0
  3  6  2  0     0  0
  4  7  1  0     0  0
  5  8  1  0     0  0
  5  9  2  0     0  0
  6 10  1  0     0  0
  6 18  1  0     0  0
  7 20  1  0     0  0
  8 11  2  0     0  0
  8 12  1  0     0  0
  9 13  1  0     0  0
 10 16  1  0     0  0
 11 14  1  0     0  0
 14 15  1  0     0  0
  7 10  2  0     0  0
 13 14  2  0     0  0
 16 17  1  0     0  0
 18 19  1  0     0  0
 20 21  1  0     0  0
M  END
> <ID>
CHEBI:45924

> <NAME>
trimethoprim

> <DEFINITION>
An aminopyrimidine antibiotic whose structure consists of pyrimidine 2,4-diamine and 1,2,3-trimethoxybenzene moieties linked by a methylene bridge.

> <STAR>
3

> <SECONDARY_ID>
CHEBI:45921; CHEBI:9731

> <SYNONYM>
Trimpex; TRIMETHOPRIM; Trimethoprim; Proloprim; 5-[(3,4,5-trimethoxyphenyl)methyl]-2,4-pyrimidinediamine; 2,4-diamino-5-(3,4,5-trimethoxybenzyl)pyrimidine

> <IUPAC_NAME>
5-(3,4,5-trimethoxybenzyl)pyrimidine-2,4-diamine

> <FORMULA>
C14H18N4O3

> <MASS>
290.318

> <MONOISOTOPIC_MASS>
290.13789

> <CHARGE>
0

> <SMILES>
C=1(CC=2C(=NC(N)=NC2)N)C=C(C(OC)=C(C1)OC)OC

> <INCHI>
InChI=1S/C14H18N4O3/c1-19-10-5-8(6-11(20-2)12(10)21-3)4-9-7-17-14(16)18-13(9)15/h5-7H,4H2,1-3H3,(H4,15,16,17,18)

> <INCHIKEY>
IEDVJHCEMCRBQM-UHFFFAOYSA-N

> <BEILSTEIN_REGISTRY_NUMBER>
625127

> <CAS_REGISTRY_NUMBER>
738-70-5

> <GMELIN_REGISTRY_NUMBER>
808843

> <REAXYS_REGISTRY_NUMBER>
625127

> <CHEMIDPLUS>
738-70-5

> <DRUGBANK_ACCESSION>
DB00440

> <HMDB_ACCESSION>
HMDB0014583

> <KEGG_COMPOUND_ACCESSION>
C01965

> <KEGG_DRUG_ACCESSION>
D00145

> <LINCS_ACCESSION>
LSM-5246

> <NIST_CHEMISTRY_WEBBOOK>
738-70-5

> <PDBECHEM_ACCESSION>
TOP

> <WIKIPEDIA_ACCESSION>
Trimethoprim

> <PUBMED_CITATION>
10423629; 10969053; 11051625; 14629008; 15203044; 16311012; 18816075; 25111783; 25361939; 26546758; 26566149; 26942256; 26987772; 28166217; 7602118; 8911701

$$$$

Marvin  02040917492D          

 23 24  0  0  1  0            999 V2000
   -1.3681   -0.3762    0.0000 N   0  0  0  0  0  0  0  0  0  0  0  0
   -1.3681    0.4488    0.0000 C   0  0  2  0  0  0  0  0  0  0  0  0
   -0.5835   -0.6311    0.0000 C   0  0  0  0  0  0  0  0  0  0  0  0
   -2.1931   -0.3762    0.0000 C   0  0  0  0  0  0  0  0  0  0  0  0
   -0.5835    0.7037    0.0000 C   0  0  0  0  0  0  0  0  0  0  0  0
   -0.0986    0.0363    0.0000 C   0  0  0  0  0  0  0  0  0  0  0  0
   -0.3286   -1.4158    0.0000 C   0  0  0  0  0  0  0  0  0  0  0  0
   -2.7765   -0.9596    0.0000 O   0  0  0  0  0  0  0  0  0  0  0  0
   -2.9228    0.8337    0.0000 C   0  0  1  0  0  0  0  0  0  0  0  0
    0.7264    0.0363    0.0000 S   0  0  0  0  0  0  0  0  0  0  0  0
    0.4784   -1.5873    0.0000 O   0  0  0  0  0  0  0  0  0  0  0  0
   -0.8806   -2.0289    0.0000 O   0  0  0  0  0  0  0  0  0  0  0  0
   -3.6210    0.3942    0.0000 C   0  0  0  0  0  0  0  0  0  0  0  0
   -2.9543    1.6581    0.0000 O   0  0  0  0  0  0  0  0  0  0  0  0
    1.1389    0.7508    0.0000 C   0  0  0  0  0  0  0  0  0  0  0  0
    1.9639    0.7508    0.0000 C   0  0  0  0  0  0  0  0  0  0  0  0
    2.3764    1.4652    0.0000 N   0  0  0  0  0  0  0  0  0  0  0  0
    3.6139    2.1797    0.0000 N   0  0  0  0  0  0  0  0  0  0  0  0
   -1.3442    1.2735    0.0000 H   0  0  0  0  0  0  0  0  0  0  0  0
   -2.1931    0.4488    0.0000 C   0  0  2  0  0  0  0  0  0  0  0  0
   -2.1931    1.2738    0.0000 H   0  0  0  0  0  0  0  0  0  0  0  0
    3.2014    1.4652    0.0000 C   0  0  0  0  0  0  0  0  0  0  0  0
    3.6139    0.7508    0.0000 H   0  0  0  0  0  0  0  0  0  0  0  0
  1  2  1  0  0  0  0
  1  3  1  0  0  0  0
  1  4  1  0  0  0  0
  2 20  1  0  0  0  0
  2  5  1  0  0  0  0
  3  6  2  0  0  0  0
  3  7  1  0  0  0  0
  4  8  2  0  0  0  0
 20  9  1  0  0  0  0
  6 10  1  0  0  0  0
  7 11  1  0  0  0  0
  7 12  2  0  0  0  0
  9 13  1  0  0  0  0
  9 14  1  1  0  0  0
 10 15  1  0  0  0  0
 15 16  1  0  0  0  0
 16 17  1  0  0  0  0
 17 22  1  0  0  0  0
 22 18  2  0  0  0  0
  4 20  1  0  0  0  0
  5  6  1  0  0  0  0
  2 19  1  6  0  0  0
 20 21  1  1  0  0  0
 22 23  1  0  0  0  0
M  END
> <ID>
CHEBI:471744

> <NAME>
imipenem

> <DEFINITION>
A broad-spectrum, intravenous β-lactam antibiotic of the carbapenem subgroup.

> <STAR>
3

> <SECONDARY_ID>
CHEBI:5879

> <SYNONYM>
N-formimidoylthienamycin; N-formimidoyl thienamycin; imipenemum; Imipenem anhydrous; Imipenem; (5R,6S)-6-((R)-1-Hydroxyethyl)-3-(2-(iminomethylamino)ethylthio)-7-oxo-1-azabicyclo(3.2.0)hept-2-ene-2-carbonsaeure; (5R,6S)-3-(2-Formimidoylamino-ethylsulfanyl)-6-((R)-1-hydroxy-ethyl)-7-oxo-1-aza-bicyclo[3.2.0]hept-2-ene-2-carboxylic acid; (5R,6S)-3-((2-(Formimidoylamino)ethyl)thio)-6-((R)-1-hydroxyethyl)-7-oxo-1-azabicyclo(3.2.0)hept-2-ene-2-carboxylic acid

> <IUPAC_NAME>
(5R,6S)-6-[(1R)-1-hydroxyethyl]-3-({2-[(iminomethyl)amino]ethyl}sulfanyl)-7-oxo-1-azabicyclo[3.2.0]hept-2-ene-2-carboxylic acid

> <FORMULA>
C12H17N3O4S

> <MASS>
299.34720

> <MONOISOTOPIC_MASS>
299.09398

> <CHARGE>
0

> <SMILES>
[H]C(=N)NCCSC1=C(N2C(=O)[C@]([H])([C@@H](C)O)[C@@]2([H])C1)C(O)=O

> <INCHI>
InChI=1S/C12H17N3O4S/c1-6(16)9-7-4-8(20-3-2-14-5-13)10(12(18)19)15(7)11(9)17/h5-7,9,16H,2-4H2,1H3,(H2,13,14)(H,18,19)/t6-,7-,9-/m1/s1

> <INCHIKEY>
ZSKVGTPCRGIANV-ZXFLCMHBSA-N

> <BEILSTEIN_REGISTRY_NUMBER>
434624

> <CAS_REGISTRY_NUMBER>
64221-86-9

> <REAXYS_REGISTRY_NUMBER>
434624

> <CHEMIDPLUS>
64221-86-9

> <DRUGBANK_ACCESSION>
DB01598

> <KEGG_COMPOUND_ACCESSION>
C06665

> <KEGG_DRUG_ACCESSION>
D04515

> <LINCS_ACCESSION>
LSM-6568

> <WIKIPEDIA_ACCESSION>
Imipenem

> <PUBMED_CITATION>
1384868; 17361077; 24112243; 24247132; 2457043; 24903189; 25216543; 25351714; 9131470

$$$$

Ketcher 04141614282D 1   1.00000     0.00000     0

 30 33  0     1  0            999 V2000
   20.6539  -11.3547    0.0000 C   0  0  0  0  0  0  0  0  0  0  0  0
   20.6539  -12.3516    0.0000 N   0  0  0  0  0  0  0  0  0  0  0  0
   21.5175  -12.8500    0.0000 C   0  0  0  0  0  0  0  0  0  0  0  0
   22.3807  -12.3516    0.0000 C   0  0  0  0  0  0  0  0  0  0  0  0
   22.3807  -11.3547    0.0000 C   0  0  0  0  0  0  0  0  0  0  0  0
   21.5175  -10.8562    0.0000 S   0  0  0  0  0  0  0  0  0  0  0  0
   19.6569  -11.3547    0.0000 C   0  0  0  0  0  0  0  0  0  0  0  0
   19.6569  -12.3516    0.0000 C   0  0  0  0  0  0  0  0  0  0  0  0
   18.7937  -10.8562    0.0000 N   0  0  0  0  0  0  0  0  0  0  0  0
   18.7938   -9.8591    0.0000 C   0  0  0  0  0  0  0  0  0  0  0  0
   19.6572   -9.3608    0.0000 O   0  0  0  0  0  0  0  0  0  0  0  0
   18.7937  -12.8500    0.0000 O   0  0  0  0  0  0  0  0  0  0  0  0
   17.9305   -9.3605    0.0000 C   0  0  0  0  0  0  0  0  0  0  0  0
   23.2574  -12.8580    0.0000 C   0  0  0  0  0  0  0  0  0  0  0  0
   21.5175  -13.8469    0.0000 C   0  0  0  0  0  0  0  0  0  0  0  0
   20.6419  -14.3525    0.0000 O   0  0  0  0  0  0  0  0  0  0  0  0
   22.3686  -14.3385    0.0000 O   0  0  0  0  0  0  0  0  0  0  0  0
   17.9310   -8.3471    0.0000 N   0  0  0  0  0  0  0  0  0  0  0  0
   20.6539  -10.3568    0.0000 H   0  0  0  0  0  0  0  0  0  0  0  0
   24.1244  -12.3577    0.0000 S   0  0  0  0  0  0  0  0  0  0  0  0
   24.1245  -11.3600    0.0000 C   0  0  0  0  0  0  0  0  0  0  0  0
   24.9318  -10.7738    0.0000 N   0  0  0  0  0  0  0  0  0  0  0  0
   24.6236   -9.8249    0.0000 N   0  0  0  0  0  0  0  0  0  0  0  0
   23.6261   -9.8247    0.0000 C   0  0  0  0  0  0  0  0  0  0  0  0
   23.3176  -10.7735    0.0000 S   0  0  0  0  0  0  0  0  0  0  0  0
   23.0399   -9.0175    0.0000 C   0  0  0  0  0  0  0  0  0  0  0  0
   17.1311   -7.7369    0.0000 C   0  0  0  0  0  0  0  0  0  0  0  0
   17.4633   -6.7844    0.0000 N   0  0  0  0  0  0  0  0  0  0  0  0
   18.4719   -6.8060    0.0000 N   0  0  0  0  0  0  0  0  0  0  0  0
   18.7631   -7.7719    0.0000 N   0  0  0  0  0  0  0  0  0  0  0  0
  1  2  1  0     0  0
  2  3  1  0     0  0
  3  4  2  0     0  0
  4  5  1  0     0  0
  5  6  1  0     0  0
  1  6  1  0     0  0
  1  7  1  0     0  0
  7  8  1  0     0  0
  2  8  1  0     0  0
  7  9  1  1     0  0
  9 10  1  0     0  0
 10 11  2  0     0  0
  8 12  2  0     0  0
 10 13  1  0     0  0
  4 14  1  0     0  0
  3 15  1  0     0  0
 15 16  2  0     0  0
 15 17  1  0     0  0
 13 18  1  0     0  0
  1 19  1  6     0  0
 14 20  1  0     0  0
 20 21  1  0     0  0
 21 22  2  0     0  0
 22 23  1  0     0  0
 23 24  2  0     0  0
 24 25  1  0     0  0
 21 25  1  0     0  0
 24 26  1  0     0  0
 18 27  1  0     0  0
 27 28  2  0     0  0
 28 29  1  0     0  0
 29 30  2  0     0  0
 18 30  1  0     0  0
M  END
> <ID>
CHEBI:474053

> <NAME>
cefazolin

> <DEFINITION>
A first-generation cephalosporin compound having [(5-methyl-1,3,4-thiadiazol-2-yl)sulfanyl]methyl and (1H-tetrazol-1-ylacetyl)amino side-groups at positions 3 and 7 respectively.

> <STAR>
3

> <SECONDARY_ID>
CHEBI:3482

> <SYNONYM>
CEZ; Cephazoline; Cephazolin; Cephazolidin; Cephamezine; Cefamezin; (6R,7R)-3-{[(5-methyl-1,3,4-thiadiazol-2-yl)sulfanyl]methyl}-8-oxo-7-[(1H-tetrazol-1-ylacetyl)amino]-5-thia-1-azabicyclo[4.2.0]oct-2-ene-2-carboxylic acid

> <IUPAC_NAME>
3-{[(5-methyl-1,3,4-thiadiazol-2-yl)sulfanyl]methyl}-7beta-[(1H-tetrazol-1-ylacetyl)amino]-3,4-didehydrocepham-4-carboxylic acid

> <INN>
cefazolinum; cefazoline; cefazolina; cefazolin

> <FORMULA>
C14H14N8O4S3

> <MASS>
454.511

> <MONOISOTOPIC_MASS>
454.03001

> <CHARGE>
0

> <SMILES>
[C@]12(N(C(=C(CS1)CSC3=NN=C(S3)C)C(=O)O)C([C@H]2NC(=O)CN4C=NN=N4)=O)[H]

> <INCHI>
InChI=1S/C14H14N8O4S3/c1-6-17-18-14(29-6)28-4-7-3-27-12-9(11(24)22(12)10(7)13(25)26)16-8(23)2-21-5-15-19-20-21/h5,9,12H,2-4H2,1H3,(H,16,23)(H,25,26)/t9-,12-/m1/s1

> <INCHIKEY>
MLYYVTUWGNIJIB-BXKDBHETSA-N

> <BEILSTEIN_REGISTRY_NUMBER>
4169371

> <CAS_REGISTRY_NUMBER>
25953-19-9

> <REAXYS_REGISTRY_NUMBER>
4169371

> <CHEMIDPLUS>
25953-19-9

> <DRUGBANK_ACCESSION>
DB01327

> <HMDB_ACCESSION>
HMDB0015422

> <KEGG_COMPOUND_ACCESSION>
C06880

> <KEGG_DRUG_ACCESSION>
D02299

> <LINCS_ACCESSION>
LSM-34744

> <WIKIPEDIA_ACCESSION>
Cefazolin

> <PUBMED_CITATION>
12569987; 2083978; 22011388; 23702270; 24462449; 28543395; 29017833; 6176550

$$$$

11290715122D 1   1.00000     0.00000     0

  7  7  0     0  0            999 V2000
    2.5500  -18.5375    0.0000 C   0  0  0  0  0  0           0  0  0
    3.3750  -18.5375    0.0000 C   0  0  0  0  0  0           0  0  0
    3.6318  -17.7534    0.0000 C   0  0  0  0  0  0           0  0  0
    2.9625  -17.2667    0.0000 O   0  0  0  0  0  0           0  0  0
    2.2974  -17.7534    0.0000 C   0  0  0  0  0  0           0  0  0
    1.5127  -17.4988    0.0000 O   0  0  0  0  0  0           0  0  0
    4.4167  -17.4996    0.0000 O   0  0  0  0  0  0           0  0  0
  2  3  1  0     0  0
  3  4  1  0     0  0
  4  5  1  0     0  0
  5  1  1  0     0  0
  1  2  2  0     0  0
  5  6  2  0     0  0
  3  7  2  0     0  0
M  END
> <ID>
CHEBI:474859

> <NAME>
maleic anhydride

> <DEFINITION>
A cyclic dicarboxylic anhydride that is the cyclic anhydride of maleic acid.

> <STAR>
3

> <SYNONYM>
Toxilic anhydride; Maleic acid anhydride; MA; Dihydro-2,5-dioxofuran; cis-Butenedioic anhydride; 2,5-Furandione

> <IUPAC_NAME>
furan-2,5-dione

> <FORMULA>
C4H2O3

> <MASS>
98.05690

> <MONOISOTOPIC_MASS>
98.00039

> <CHARGE>
0

> <SMILES>
O=C1OC(=O)C=C1

> <INCHI>
InChI=1S/C4H2O3/c5-3-1-2-4(6)7-3/h1-2H

> <INCHIKEY>
FPYJFEHAWHCUMM-UHFFFAOYSA-N

> <BEILSTEIN_REGISTRY_NUMBER>
106909

> <CAS_REGISTRY_NUMBER>
108-31-6

> <GMELIN_REGISTRY_NUMBER>
2728

> <REAXYS_REGISTRY_NUMBER>
106909

> <CHEMIDPLUS>
108-31-6

> <NIST_CHEMISTRY_WEBBOOK>
108-31-6

> <WIKIPEDIA_ACCESSION>
Maleic_anhydride

> <PUBMED_CITATION>
1789402; 24315947; 26073302; 26328347; 26639665; 26961914; 3711550

$$$$

Marvin  11130717342D          
 
 20 22  0  0  0  0            999 V2000
    0.0000    0.0000    0.0000 N   0  0  0  0  0  0  0  0  0  0  0  0
    0.0000   -0.8250    0.0000 C   0  0  0  0  0  0  0  0  0  0  0  0
    0.4125    1.8073    0.0000 C   0  0  0  0  0  0  0  0  0  0  0  0
    0.9269    1.1623    0.0000 C   0  0  0  0  0  0  0  0  0  0  0  0
    0.7433    0.3580    0.0000 C   0  0  0  0  0  0  0  0  0  0  0  0
   -0.4125    1.8073    0.0000 C   0  0  0  0  0  0  0  0  0  0  0  0
   -0.7433    0.3580    0.0000 C   0  0  0  0  0  0  0  0  0  0  0  0
   -0.9269    1.1623    0.0000 C   0  0  0  0  0  0  0  0  0  0  0  0
    1.3481   -0.2032    0.0000 C   0  0  0  0  0  0  0  0  0  0  0  0
    2.1364    0.0400    0.0000 C   0  0  0  0  0  0  0  0  0  0  0  0
    2.3200    0.8443    0.0000 C   0  0  0  0  0  0  0  0  0  0  0  0
    1.7152    1.4054    0.0000 C   0  0  0  0  0  0  0  0  0  0  0  0
   -1.7152    1.4054    0.0000 C   0  0  0  0  0  0  0  0  0  0  0  0
   -2.3200    0.8443    0.0000 C   0  0  0  0  0  0  0  0  0  0  0  0
   -2.1364    0.0400    0.0000 C   0  0  0  0  0  0  0  0  0  0  0  0
   -1.3481   -0.2032    0.0000 C   0  0  0  0  0  0  0  0  0  0  0  0
    0.7145   -1.2375    0.0000 C   0  0  0  0  0  0  0  0  0  0  0  0
    0.7145   -2.0625    0.0000 C   0  0  0  0  0  0  0  0  0  0  0  0
    1.4289   -2.4750    0.0000 N   0  0  0  0  0  0  0  0  0  0  0  0
    1.4289   -3.3000    0.0000 C   0  0  0  0  0  0  0  0  0  0  0  0
  5  1  1  0  0  0  0
  1  7  1  0  0  0  0
  1  2  1  0  0  0  0
  2 17  1  0  0  0  0
  3  6  1  0  0  0  0
  3  4  1  0  0  0  0
  4  5  2  0  0  0  0
  4 12  1  0  0  0  0
  5  9  1  0  0  0  0
  6  8  1  0  0  0  0
  7  8  2  0  0  0  0
  7 16  1  0  0  0  0
  8 13  1  0  0  0  0
  9 10  2  0  0  0  0
 10 11  1  0  0  0  0
 11 12  2  0  0  0  0
 13 14  2  0  0  0  0
 14 15  1  0  0  0  0
 15 16  2  0  0  0  0
 17 18  1  0  0  0  0
 18 19  1  0  0  0  0
 19 20  1  0  0  0  0
M  END
> <ID>
CHEBI:47781

> <NAME>
desipramine

> <DEFINITION>
A dibenzoazepine consisting of 10,11-dihydro-5H-dibenzo[b,f]azepine substituted on nitrogen with a 3-(methylamino)propyl group.

> <STAR>
3

> <SECONDARY_ID>
CHEBI:47393; CHEBI:4448

> <SYNONYM>
norimipramine; N-(3-methylaminopropyl)iminobibenzyl; monodemethylimipramine; DMI; desmethylimipramine; Desipramine; Desipramin; demethylimipramine; 5-(gamma-methylaminopropyl)iminodibenzyl; 3-(10,11-DIHYDRO-5H-DIBENZO[B,F]AZEPIN-5-YL)-N-METHYLPROPAN-1-AMINE

> <IUPAC_NAME>
3-(10,11-dihydro-5H-dibenzo[b,f]azepin-5-yl)-N-methylpropan-1-amine

> <INN>
desipraminum; desipramine; desipramine; desipramina

> <FORMULA>
C18H22N2

> <MASS>
266.38076

> <MONOISOTOPIC_MASS>
266.17830

> <CHARGE>
0

> <SMILES>
CNCCCN1c2ccccc2CCc2ccccc12

> <INCHI>
InChI=1S/C18H22N2/c1-19-13-6-14-20-17-9-4-2-7-15(17)11-12-16-8-3-5-10-18(16)20/h2-5,7-10,19H,6,11-14H2,1H3

> <INCHIKEY>
HCYAFALTSJYZDH-UHFFFAOYSA-N

> <BEILSTEIN_REGISTRY_NUMBER>
1432747

> <CAS_REGISTRY_NUMBER>
50-47-5

> <REAXYS_REGISTRY_NUMBER>
1432747

> <CHEMIDPLUS>
50-47-5

> <DRUGBANK_ACCESSION>
DB01151

> <HMDB_ACCESSION>
HMDB0015282

> <KEGG_COMPOUND_ACCESSION>
C06943

> <KEGG_DRUG_ACCESSION>
D07791

> <LINCS_ACCESSION>
LSM-3351

> <NIST_CHEMISTRY_WEBBOOK>
50-47-5

> <PDBECHEM_ACCESSION>
DSM

> <WIKIPEDIA_ACCESSION>
Desipramine

> <PUBMED_CITATION>
11041270; 11287497; 19328214; 20825390; 24399719

$$$$

Marvin  05051009532D          

 33 36  0  0  1  0            999 V2000
   15.9961  -11.1117    0.0000 C   0  0  0  0  0  0  0  0  0  0  0  0
   15.9961   -9.7817    0.0000 C   0  0  0  0  0  0  0  0  0  0  0  0
   14.8414   -9.1201    0.0000 S   0  0  0  0  0  0  0  0  0  0  0  0
   14.8414  -11.7868    0.0000 C   0  0  0  0  0  0  0  0  0  0  0  0
   13.6933  -11.1117    0.0000 N   0  0  0  0  0  0  0  0  0  0  0  0
   13.7020   -9.7819    0.0000 C   0  0  0  0  0  0  0  0  0  0  0  0
   12.3654   -9.7732    0.0000 C   0  0  0  0  0  0  0  0  0  0  0  0
   12.3567  -11.1097    0.0000 C   0  0  0  0  0  0  0  0  0  0  0  0
   11.4093  -12.0515    0.0000 O   0  0  0  0  0  0  0  0  0  0  0  0
   14.8414  -13.1235    0.0000 C   0  0  0  0  0  0  0  0  0  0  0  0
   15.9955  -13.7885    0.0000 O   0  5  0  0  0  0  0  0  0  0  0  0
   13.6807  -13.7885    0.0000 O   0  0  0  0  0  0  0  0  0  0  0  0
   17.1531  -11.7783    0.0000 C   0  0  0  0  0  0  0  0  0  0  0  0
   13.7147   -8.4485    0.0000 H   0  0  0  0  0  0  0  0  0  0  0  0
   11.2289   -9.0818    0.0000 N   0  0  0  0  0  0  0  0  0  0  0  0
   10.0774   -9.7472    0.0000 C   0  0  0  0  0  0  0  0  0  0  0  0
    8.9253   -9.0829    0.0000 C   0  0  0  0  0  0  0  0  0  0  0  0
   10.0781  -11.0772    0.0000 O   0  0  0  0  0  0  0  0  0  0  0  0
    8.9248   -7.7529    0.0000 N   0  0  0  0  0  0  0  0  0  0  0  0
   10.0763   -7.0873    0.0000 O   0  0  0  0  0  0  0  0  0  0  0  0
   10.0756   -5.7573    0.0000 C   0  0  0  0  0  0  0  0  0  0  0  0
    7.7739   -9.7483    0.0000 C   0  0  0  0  0  0  0  0  0  0  0  0
    6.5628   -9.2126    0.0000 C   0  0  0  0  0  0  0  0  0  0  0  0
    5.6734  -10.2014    0.0000 S   0  0  0  0  0  0  0  0  0  0  0  0
    6.3390  -11.3530    0.0000 C   0  0  0  0  0  0  0  0  0  0  0  0
    7.6395  -11.0757    0.0000 N   0  0  0  0  0  0  0  0  0  0  0  0
    5.7986  -12.5683    0.0000 N   0  0  0  0  0  0  0  0  0  0  0  0
   18.3043  -11.1122    0.0000 N   0  3  0  0  0  0  0  0  0  0  0  0
   19.5220  -11.6598    0.0000 C   0  0  0  0  0  0  0  0  0  0  0  0
   20.4111  -10.6706    0.0000 C   0  0  0  0  0  0  0  0  0  0  0  0
   19.7450   -9.5194    0.0000 C   0  0  0  0  0  0  0  0  0  0  0  0
   18.4444   -9.7973    0.0000 C   0  0  0  0  0  0  0  0  0  0  0  0
   18.3128  -12.4432    0.0000 C   0  0  0  0  0  0  0  0  0  0  0  0
 15 16  1  0  0  0  0
  1  4  2  0  0  0  0
 16 17  1  0  0  0  0
  2  3  1  0  0  0  0
 16 18  2  0  0  0  0
  3  6  1  0  0  0  0
 17 19  2  0  0  0  0
  5  4  1  0  0  0  0
 19 20  1  0  0  0  0
  5  6  1  0  0  0  0
 20 21  1  0  0  0  0
  6  7  1  0  0  0  0
 17 22  1  0  0  0  0
 22 23  2  0  0  0  0
  7  8  1  0  0  0  0
  8  5  1  0  0  0  0
  8  9  2  0  0  0  0
  4 10  1  0  0  0  0
 23 24  1  0  0  0  0
 24 25  1  0  0  0  0
 25 26  2  0  0  0  0
 26 22  1  0  0  0  0
 10 11  1  0  0  0  0
 25 27  1  0  0  0  0
 10 12  2  0  0  0  0
 13 28  1  0  0  0  0
 28 29  1  0  0  0  0
  1 13  1  0  0  0  0
  6 14  1  6  0  0  0
  7 15  1  1  0  0  0
 29 30  1  0  0  0  0
 30 31  1  0  0  0  0
 31 32  1  0  0  0  0
 32 28  1  0  0  0  0
  1  2  1  0  0  0  0
 28 33  1  0  0  0  0
M  CHG  2  11  -1  28   1
M  END
> <ID>
CHEBI:478164

> <NAME>
cefepime

> <DEFINITION>
A cephalosporin bearing (1-methylpyrrolidinium-1-yl)methyl and (2Z)-2-(2-amino-1,3-thiazol-4-yl)-2-(methoxyimino)acetamido groups at positions 3 and 7, respectively, of the cephem skeleton.

> <STAR>
3

> <SECONDARY_ID>
CHEBI:3486; CHEBI:473919

> <SYNONYM>
CFPM; cefepime; Cefepime; (6R,7R)-7-{[(2Z)-2-(2-amino-1,3-thiazol-4-yl)-2-(methoxyimino)acetyl]amino}-3-[(1-methylpyrrolidinium-1-yl)methyl]-8-oxo-5-thia-1-azabicyclo[4.2.0]oct-2-ene-2-carboxylate

> <IUPAC_NAME>
7beta-[(2Z)-2-(2-amino-1,3-thiazol-4-yl)-2-(methoxyimino)acetamido]-3-[(1-methylpyrrolidinium-1-yl)methyl]-3,4-didehydrocepham-4-carboxylate

> <INN>
cefepimum; cefepime; cefepima

> <FORMULA>
C19H24N6O5S2

> <MASS>
480.56100

> <MONOISOTOPIC_MASS>
480.12496

> <CHARGE>
0

> <SMILES>
[H][C@]12SCC(C[N+]3(C)CCCC3)=C(N1C(=O)[C@H]2NC(=O)C(=N/OC)\c1csc(N)n1)C([O-])=O

> <INCHI>
InChI=1S/C19H24N6O5S2/c1-25(5-3-4-6-25)7-10-8-31-17-13(16(27)24(17)14(10)18(28)29)22-15(26)12(23-30-2)11-9-32-19(20)21-11/h9,13,17H,3-8H2,1-2H3,(H3-,20,21,22,26,28,29)/b23-12-/t13-,17-/m1/s1

> <INCHIKEY>
HVFLCNVBZFFHBT-ZKDACBOMSA-N

> <BEILSTEIN_REGISTRY_NUMBER>
7453587

> <CAS_REGISTRY_NUMBER>
88040-23-7

> <REAXYS_REGISTRY_NUMBER>
7453587

> <DRUGBANK_ACCESSION>
DB01413

> <KEGG_COMPOUND_ACCESSION>
C08111

> <KEGG_DRUG_ACCESSION>
D02376

> <WIKIPEDIA_ACCESSION>
Cefepime

> <PUBMED_CITATION>
11084674; 11179650; 11191931; 11260566; 11280610; 11303846; 11306793; 11328792; 11431192; 11442796; 11864944; 11910959; 11964152; 12848746; 14628573; 14642333; 15303411; 15494381; 15830071; 15978309; 15980347; 16207962; 16650951; 16705389; 16930923; 17042189; 17214092; 17323865; 17448937; 17625777; 18025111; 18154532; 18651542; 18673128; 18717040; 19053894; 19304881; 21425867; 28543395; 29017833

$$$$

Marvin  11200712182D          

 15 15  0  0  0  0            999 V2000
    0.0000   -0.8250    0.0000 C   0  0  0  0  0  0  0  0  0  0  0  0
   -0.7145   -0.4125    0.0000 C   0  0  0  0  0  0  0  0  0  0  0  0
    0.7145    0.4125    0.0000 C   0  0  0  0  0  0  0  0  0  0  0  0
    0.7145   -0.4125    0.0000 C   0  0  0  0  0  0  0  0  0  0  0  0
    0.0000    0.8250    0.0000 C   0  0  0  0  0  0  0  0  0  0  0  0
   -0.7145    0.4125    0.0000 C   0  0  0  0  0  0  0  0  0  0  0  0
    1.4289   -0.8250    0.0000 C   0  0  2  0  0  0  0  0  0  0  0  0
    2.1434   -0.4125    0.0000 C   0  0  0  0  0  0  0  0  0  0  0  0
    2.1434    0.4125    0.0000 O   0  0  0  0  0  0  0  0  0  0  0  0
    2.8579   -0.8250    0.0000 O   0  0  0  0  0  0  0  0  0  0  0  0
    1.4289   -1.6500    0.0000 C   0  0  0  0  0  0  0  0  0  0  0  0
   -1.4289    0.8250    0.0000 C   0  0  0  0  0  0  0  0  0  0  0  0
   -2.8579    0.8250    0.0000 C   0  0  0  0  0  0  0  0  0  0  0  0
   -2.1434    0.4125    0.0000 C   0  0  3  0  0  0  0  0  0  0  0  0
   -2.1434   -0.4125    0.0000 C   0  0  0  0  0  0  0  0  0  0  0  0
  2  1  1  0  0  0  0
  4  3  1  0  0  0  0
  1  4  2  0  0  0  0
  7  4  1  0  0  0  0
  5  3  2  0  0  0  0
  2  6  2  0  0  0  0
  6  5  1  0  0  0  0
 12  6  1  0  0  0  0
  7  8  1  0  0  0  0
  7 11  1  6  0  0  0
  9  8  2  0  0  0  0
 10  8  1  0  0  0  0
 12 14  1  0  0  0  0
 14 13  1  0  0  0  0
 14 15  1  0  0  0  0
M  END
> <ID>
CHEBI:47835

> <NAME>
levibuprofen

> <STAR>
3

> <SYNONYM>
(R)-alpha-methyl-4-(2-methylpropyl)benzeneacetic acid; (2R)-2-(4-isobutylphenyl)propanoic acid; (-)-ibuprofen

> <IUPAC_NAME>
(2R)-2-[4-(2-methylpropyl)phenyl]propanoic acid

> <FORMULA>
C13H18O2

> <MASS>
206.28082

> <MONOISOTOPIC_MASS>
206.13068

> <CHARGE>
0

> <SMILES>
CC(C)Cc1ccc(cc1)[C@@H](C)C(O)=O

> <INCHI>
InChI=1S/C13H18O2/c1-9(2)8-11-4-6-12(7-5-11)10(3)13(14)15/h4-7,9-10H,8H2,1-3H3,(H,14,15)/t10-/m1/s1

> <INCHIKEY>
HEFNNWSXXWATRW-SNVBAGLBSA-N

> <BEILSTEIN_REGISTRY_NUMBER>
3590023

> <CAS_REGISTRY_NUMBER>
51146-57-7

> <CHEMIDPLUS>
51146-57-7

$$$$

Marvin  03270815192D          

 15 16  0  0  1  0            999 V2000
    0.0000    0.4125    0.0000 C   0  0  2  0  0  0  0  0  0  0  0  0
    0.0000   -0.4125    0.0000 N   0  0  0  0  0  0  0  0  0  0  0  0
    0.7846   -0.6674    0.0000 C   0  0  2  0  0  0  0  0  0  0  0  0
    1.2695    0.0000    0.0000 C   0  0  0  0  0  0  0  0  0  0  0  0
    0.7846    0.6674    0.0000 O   0  0  0  0  0  0  0  0  0  0  0  0
   -0.8250    0.4125    0.0000 C   0  0  0  0  0  0  0  0  0  0  0  0
   -0.8250   -0.4125    0.0000 C   0  0  0  0  0  0  0  0  0  0  0  0
    1.0396   -1.4521    0.0000 C   0  0  0  0  0  0  0  0  0  0  0  0
    1.8465   -1.6236    0.0000 O   0  0  0  0  0  0  0  0  0  0  0  0
    0.4875   -2.0652    0.0000 O   0  0  0  0  0  0  0  0  0  0  0  0
    2.0945    0.0000    0.0000 C   0  0  0  0  0  0  0  0  0  0  0  0
   -1.4084   -0.9959    0.0000 O   0  0  0  0  0  0  0  0  0  0  0  0
    2.5070    0.7145    0.0000 C   0  0  0  0  0  0  0  0  0  0  0  0
    3.3320    0.7145    0.0000 O   0  0  0  0  0  0  0  0  0  0  0  0
    0.0000    1.2375    0.0000 H   0  0  0  0  0  0  0  0  0  0  0  0
  1  5  1  0  0  0  0
  1  6  1  0  0  0  0
  1 15  1  6  0  0  0
  1  2  1  0  0  0  0
  3  2  1  0  0  0  0
  7  2  1  0  0  0  0
  4  3  1  0  0  0  0
  3  8  1  6  0  0  0
  5  4  1  0  0  0  0
 11  4  2  0  0  0  0
  7  6  1  0  0  0  0
 12  7  2  0  0  0  0
  9  8  2  0  0  0  0
 10  8  1  0  0  0  0
 13 11  1  0  0  0  0
 13 14  1  0  0  0  0
M  END
> <ID>
CHEBI:48947

> <NAME>
clavulanic acid

> <DEFINITION>
Antibiotic isolated from Streptomyces clavuligerus. It acts as a suicide inhibitor of bacterial β-lactamase enzymes.

> <STAR>
3

> <SECONDARY_ID>
CHEBI:43442; CHEBI:3736

> <SYNONYM>
MM 14151; clavulonic acid; Clavulansaeure; Clavulanic acid; Clavulanate; antibiotic MM 14151; (Z)-(2R,5R)-3-(2-Hydroxyethylidene)-7-oxo-4-oxa-1-azabicyclo(3.2.0)heptane-2-carboxylic acid; (2R,3Z,5R)-3-(2-HYDROXYETHYLIDENE)-7-OXO-4-OXA-1-AZABICYCLO[3.2.0]HEPTANE-2-CARBOXYLIC ACID

> <IUPAC_NAME>
(2R,3Z,5R)-3-(2-hydroxyethylidene)-7-oxo-4-oxa-1-azabicyclo[3.2.0]heptane-2-carboxylic acid

> <INN>
clavulanic acid; acidum clavulanicum; acido clavulanico; acide clavulanique

> <FORMULA>
C8H9NO5

> <MASS>
199.16080

> <MONOISOTOPIC_MASS>
199.04807

> <CHARGE>
0

> <SMILES>
[H][C@@]12CC(=O)N1[C@@H](C(O)=O)\C(O2)=C\CO

> <INCHI>
InChI=1S/C8H9NO5/c10-2-1-4-7(8(12)13)9-5(11)3-6(9)14-4/h1,6-7,10H,2-3H2,(H,12,13)/b4-1-/t6-,7-/m1/s1

> <INCHIKEY>
HZZVJAQRINQKSD-PBFISZAISA-N

> <BEILSTEIN_REGISTRY_NUMBER>
787059

> <CAS_REGISTRY_NUMBER>
58001-44-8

> <REAXYS_REGISTRY_NUMBER>
787059

> <CHEMIDPLUS>
58001-44-8

> <DRUGBANK_ACCESSION>
DB00766

> <HMDB_ACCESSION>
HMDB0014904

> <KEGG_COMPOUND_ACCESSION>
C06662

> <KEGG_DRUG_ACCESSION>
D07711

> <KNAPSACK_ACCESSION>
C00018091

> <PDBECHEM_ACCESSION>
J01

> <WIKIPEDIA_ACCESSION>
Clavulanic_Acid

> <PUBMED_CITATION>
11092620; 12413541; 18450406; 19394358; 25047044; 25477926; 25763134; 25844706; 25998949; 27731424; 9131470

$$$$

Marvin  11160912542D          

 12 12  0  0  0  0            999 V2000
   14.9092  -14.1312    0.0000 C   0  0  0  0  0  0  0  0  0  0  0  0
   14.9092  -13.3062    0.0000 C   0  0  0  0  0  0  0  0  0  0  0  0
   15.6237  -14.5436    0.0000 C   0  0  0  0  0  0  0  0  0  0  0  0
   14.1948  -14.5436    0.0000 O   0  0  0  0  0  0  0  0  0  0  0  0
   15.6237  -12.8938    0.0000 C   0  0  0  0  0  0  0  0  0  0  0  0
   14.1948  -12.8938    0.0000 O   0  0  0  0  0  0  0  0  0  0  0  0
   16.3380  -14.1312    0.0000 C   0  0  0  0  0  0  0  0  0  0  0  0
   14.1948  -15.3686    0.0000 C   0  0  0  0  0  0  0  0  0  0  0  0
   16.3380  -13.3062    0.0000 C   0  0  0  0  0  0  0  0  0  0  0  0
   17.0525  -14.5436    0.0000 C   0  0  0  0  0  0  0  0  0  0  0  0
   17.7676  -14.1312    0.0000 C   0  0  0  0  0  0  0  0  0  0  0  0
   18.4828  -14.5436    0.0000 C   0  0  0  0  0  0  0  0  0  0  0  0
  1  2  1  0  0  0  0
  1  3  2  0  0  0  0
  1  4  1  0  0  0  0
  2  5  2  0  0  0  0
  2  6  1  0  0  0  0
  3  7  1  0  0  0  0
  4  8  1  0  0  0  0
  5  9  1  0  0  0  0
  7  9  2  0  0  0  0
  7 10  1  0  0  0  0
 10 11  1  0  0  0  0
 11 12  2  0  0  0  0
M  END
> <ID>
CHEBI:4917

> <NAME>
eugenol

> <DEFINITION>
A phenylpropanoid formally derived from guaiacol with an allyl chain substituted para to the hydroxy group.

> <STAR>
3

> <SYNONYM>
p-Eugenol; p-Allylguaiacol; Eugenol; eugenol; Eugenic acid; Caryophyllic acid; Allylguaiacol; 4-Hydroxy-3-methoxy-1-allylbenzene; 4-Allylguaiacol; 4-Allylcatechol-2-methyl ether; 4-allyl-2-methoxyphenol; 4-Allyl-2-methoxyphenol; 4-Allyl-1-hydroxy-2-methoxybenzene; 2-Methoxy-4-prop-2-enylphenol; 2-Methoxy-4-allylphenol; 2-Methoxy-4-(2-propenyl)phenol; 2-methoxy-4-(2-propen-1-yl)phenol; 2-Methoxy-4-(2-propen-1-yl)phenol; 2-Methoxy-1-hydroxy-4-allylbenzene; 2-Hydroxy-5-allylanisole; 1-Hydroxy-2-methoxy-4-propenylbenzene; 1-Hydroxy-2-methoxy-4-prop-2-enylbenzene; 1-Hydroxy-2-methoxy-4-allylbenzene; 1-allyl-4-hydroxy-3-methoxybenzene; 1-allyl-3-methoxy-4-hydroxybenzene; 1,3,4-Eugenol

> <IUPAC_NAME>
2-methoxy-4-(prop-2-en-1-yl)phenol

> <FORMULA>
C10H12O2

> <MASS>
164.20110

> <MONOISOTOPIC_MASS>
164.08373

> <CHARGE>
0

> <SMILES>
COc1cc(CC=C)ccc1O

> <INCHI>
InChI=1S/C10H12O2/c1-3-4-8-5-6-9(11)10(7-8)12-2/h3,5-7,11H,1,4H2,2H3

> <INCHIKEY>
RRAFCDWBNXTKKO-UHFFFAOYSA-N

> <BEILSTEIN_REGISTRY_NUMBER>
1366759

> <CAS_REGISTRY_NUMBER>
97-53-0

> <REAXYS_REGISTRY_NUMBER>
1366759

> <CHEMIDPLUS>
97-53-0

> <HMDB_ACCESSION>
HMDB0005809

> <KEGG_COMPOUND_ACCESSION>
C10453

> <KEGG_DRUG_ACCESSION>
D04117

> <KNAPSACK_ACCESSION>
C00000619

> <LINCS_ACCESSION>
LSM-2720

> <METACYC_ACCESSION>
CPD-6481

> <WIKIPEDIA_ACCESSION>
Eugenol

> <PUBMED_CITATION>
11033063; 11806158; 14745850; 15574415; 18218839; 20809147; 22923067; 23181601; 23261812; 23264268; 2329164; 23313798; 23325490; 23422484; 23422489; 23444040; 23594212; 23666640; 23677922; 23707945; 23768603; 23768604; 23791894; 23837051; 23841789; 23852671; 29079364; 8596779; 9084914

$$$$

Marvin  01120914512D          

 30 33  0  0  1  0            999 V2000
    0.7145   -1.2375    0.0000 C   0  0  0  0  0  0  0  0  0  0  0  0
    1.5395   -1.2375    0.0000 N   0  0  0  0  0  0  0  0  0  0  0  0
    1.5395   -0.4125    0.0000 C   0  0  2  0  0  0  0  0  0  0  0  0
    2.3242   -1.4925    0.0000 C   0  0  1  0  0  0  0  0  0  0  0  0
    2.3242   -0.1576    0.0000 S   0  0  0  0  0  0  0  0  0  0  0  0
    2.5791   -2.2771    0.0000 C   0  0  0  0  0  0  0  0  0  0  0  0
    3.3861   -2.4486    0.0000 O   0  0  0  0  0  0  0  0  0  0  0  0
    2.0271   -2.8902    0.0000 O   0  0  0  0  0  0  0  0  0  0  0  0
    1.5634    0.4121    0.0000 H   0  0  0  0  0  0  0  0  0  0  0  0
    0.1312   -1.8209    0.0000 O   0  0  0  0  0  0  0  0  0  0  0  0
   -0.7144   -0.4125    0.0000 C   0  0  0  0  0  0  0  0  0  0  0  0
   -0.7144   -1.2375    0.0000 O   0  0  0  0  0  0  0  0  0  0  0  0
   -0.7144    1.2375    0.0000 C   0  0  0  0  0  0  0  0  0  0  0  0
    0.0000    2.4750    0.0000 C   0  0  0  0  0  0  0  0  0  0  0  0
    0.7145    2.0625    0.0000 C   0  0  0  0  0  0  0  0  0  0  0  0
    0.7145    1.2375    0.0000 C   0  0  0  0  0  0  0  0  0  0  0  0
    0.0000    0.8250    0.0000 C   0  0  0  0  0  0  0  0  0  0  0  0
   -1.4289    0.0000    0.0000 C   0  0  0  0  0  0  0  0  0  0  0  0
   -2.2135   -0.2549    0.0000 C   0  0  0  0  0  0  0  0  0  0  0  0
   -2.6985    0.4125    0.0000 O   0  0  0  0  0  0  0  0  0  0  0  0
   -2.2135    1.0799    0.0000 N   0  0  0  0  0  0  0  0  0  0  0  0
   -1.4289    0.8250    0.0000 C   0  0  0  0  0  0  0  0  0  0  0  0
   -2.4685   -1.0396    0.0000 C   0  0  0  0  0  0  0  0  0  0  0  0
    0.0000    0.0000    0.0000 N   0  0  0  0  0  0  0  0  0  0  0  0
    0.7145   -0.4125    0.0000 C   0  0  2  0  0  0  0  0  0  0  0  0
    3.5236   -0.4125    0.0000 C   0  0  0  0  0  0  0  0  0  0  0  0
    2.8091   -0.8250    0.0000 C   0  0  0  0  0  0  0  0  0  0  0  0
    3.5236   -1.2375    0.0000 C   0  0  0  0  0  0  0  0  0  0  0  0
   -0.7144    2.0625    0.0000 C   0  0  0  0  0  0  0  0  0  0  0  0
   -1.4289    2.4750    0.0000 Cl  0  0  0  0  0  0  0  0  0  0  0  0
 25  1  1  0  0  0  0
  1  2  1  0  0  0  0
  2  3  1  0  0  0  0
 25  3  1  0  0  0  0
  2  4  1  0  0  0  0
  4 27  1  0  0  0  0
 27  5  1  0  0  0  0
  3  5  1  0  0  0  0
  4  6  1  6  0  0  0
  6  7  1  0  0  0  0
  6  8  2  0  0  0  0
  3  9  1  6  0  0  0
  1 10  2  0  0  0  0
 24 11  1  0  0  0  0
 11 12  2  0  0  0  0
 11 18  1  0  0  0  0
 22 13  1  0  0  0  0
 13 29  2  0  0  0  0
 13 17  1  0  0  0  0
 29 14  1  0  0  0  0
 14 15  2  0  0  0  0
 15 16  1  0  0  0  0
 16 17  2  0  0  0  0
 18 19  2  0  0  0  0
 19 20  1  0  0  0  0
 19 23  1  0  0  0  0
 20 21  1  0  0  0  0
 21 22  2  0  0  0  0
 18 22  1  0  0  0  0
 25 24  1  1  0  0  0
 27 26  1  0  0  0  0
 27 28  1  0  0  0  0
 29 30  1  0  0  0  0
M  END
> <ID>
CHEBI:49566

> <NAME>
cloxacillin

> <DEFINITION>
A semisynthetic penicillin antibiotic carrying a 3-(2-chlorophenyl)-5-methylisoxazole-4-carboxamido group at position 6.

> <STAR>
3

> <SECONDARY_ID>
CHEBI:49565; CHEBI:3765

> <SYNONYM>
CLOXACILLIN; Cloxacillin; 6-(3-(o-chlorophenyl)-5-methyl-4-isoxazolecarboxamido)penicillanic acid; (3-(o-chlorophenyl)-5-methyl-4-isoxazolyl)penicillin; (2S,5R,6R)-6-({[3-(2-chlorophenyl)-5-methylisoxazol-4-yl]carbonyl}amino)-3,3-dimethyl-7-oxo-4-thia-1-azabicyclo[3.2.0]heptane-2-carboxylic acid

> <IUPAC_NAME>
2,2-dimethyl-6beta-({[5-methyl-3-(2-chlorophenyl)isoxazol-4-yl]carbonyl}amino)penam-3alpha-carboxylic acid

> <INN>
cloxacillinum; cloxacilline; cloxacillin; cloxacilina

> <FORMULA>
C19H18ClN3O5S

> <MASS>
435.88214

> <MONOISOTOPIC_MASS>
435.06557

> <CHARGE>
0

> <SMILES>
[H][C@]12SC(C)(C)[C@@H](N1C(=O)[C@H]2NC(=O)c1c(C)onc1-c1ccccc1Cl)C(O)=O

> <INCHI>
InChI=1S/C19H18ClN3O5S/c1-8-11(12(22-28-8)9-6-4-5-7-10(9)20)15(24)21-13-16(25)23-14(18(26)27)19(2,3)29-17(13)23/h4-7,13-14,17H,1-3H3,(H,21,24)(H,26,27)/t13-,14+,17-/m1/s1

> <INCHIKEY>
LQOLIRLGBULYKD-JKIFEVAISA-N

> <BEILSTEIN_REGISTRY_NUMBER>
1232834

> <CAS_REGISTRY_NUMBER>
61-72-3

> <REAXYS_REGISTRY_NUMBER>
1232834

> <CHEMIDPLUS>
61-72-3

> <DRUGBANK_ACCESSION>
DB01147

> <HMDB_ACCESSION>
HMDB0015278

> <KEGG_COMPOUND_ACCESSION>
C06923

> <KEGG_DRUG_ACCESSION>
D07733

> <LINCS_ACCESSION>
LSM-15183

> <PDBECHEM_ACCESSION>
CXN

> <WIKIPEDIA_ACCESSION>
Cloxacillin

> <PUBMED_CITATION>
16540070; 16853954; 1701026; 24858821; 25305230; 25582344; 26365730; 27446834; 27889744; 29017833; 7417768; 8566082

$$$$

11280715342D 1   1.00000     0.00000     0

 18 19  0     0  0            999 V2000
    8.6375   -7.7792    0.0000 C   0  0  0  0  0  0           0  0  0
    7.1750   -7.7792    0.0000 C   0  0  0  0  0  0           0  0  0
    7.9042   -8.2000    0.0000 C   0  0  3  0  0  0           0  0  0
    6.4542   -8.1917    0.0000 C   0  0  0  0  0  0           0  0  0
    8.6375   -6.9500    0.0000 O   0  0  0  0  0  0           0  0  0
    5.7417   -7.7792    0.0000 C   0  0  0  0  0  0           0  0  0
    5.0292   -8.1917    0.0000 O   0  0  0  0  0  0           0  0  0
    9.3500   -8.2000    0.0000 O   0  0  0  0  0  0           0  0  0
    4.3042   -7.7792    0.0000 C   0  0  0  0  0  0           0  0  0
    7.1750   -6.9417    0.0000 C   0  0  0  0  0  0           0  0  0
    6.4542   -6.5250    0.0000 C   0  0  0  0  0  0           0  0  0
    5.7417   -6.9417    0.0000 C   0  0  0  0  0  0           0  0  0
    7.9042   -9.0292    0.0000 C   0  0  0  0  0  0           0  0  0
    4.3042   -6.9417    0.0000 C   0  0  0  0  0  0           0  0  0
    3.5875   -8.1917    0.0000 C   0  0  0  0  0  0           0  0  0
    2.8667   -7.7792    0.0000 C   0  0  0  0  0  0           0  0  0
    3.5875   -6.5250    0.0000 C   0  0  0  0  0  0           0  0  0
    2.8667   -6.9417    0.0000 C   0  0  0  0  0  0           0  0  0
  2  3  1  0     0  0
  3  1  1  0     0  0
  4  2  2  0     0  0
  5  1  2  0     0  0
  6  4  1  0     0  0
  7  6  1  0     0  0
  8  1  1  0     0  0
  9  7  1  0     0  0
 10  2  1  0     0  0
 11 10  2  0     0  0
 12 11  1  0     0  0
 13  3  1  0     0  0
 14  9  1  0     0  0
 15  9  2  0     0  0
 16 15  1  0     0  0
 17 14  2  0     0  0
 18 16  2  0     0  0
 12  6  2  0     0  0
 18 17  1  0     0  0
M  END
> <ID>
CHEBI:5004

> <NAME>
fenoprofen

> <DEFINITION>
A monocarboxylic acid that is propanoic acid in which one of the hydrogens at position 2 is substituted by a 3-phenoxyphenyl group. A non-steroidal anti-inflammatory drug, the dihydrate form of the calcium salt is used for the management of mild to moderate pain and for the relief of pain and inflammation associated with  disorders such as arthritis. It is pharmacologically similar to aspirin, but causes less gastrointestinal bleeding.

> <STAR>
3

> <SECONDARY_ID>
CHEBI:355534

> <SYNONYM>
Fenoprofen; FENOPROFEN; alpha-methyl-3-phenoxybenzeneacetic acid; alpha-(m-phenoxyphenyl)propionic acid; 2-(m-phenoxyphenyl)propionic acid; 2-(3-phenoxyphenyl)propionic acid; (+-)-m-phenoxyhydratropic acid; (+-)-2-(3-phenoxyphenyl)propionic acid

> <IUPAC_NAME>
2-(3-phenoxyphenyl)propanoic acid

> <INN>
fenoprofenum; fenoprofeno; fenoprofene; fenoprofen

> <FORMULA>
C15H14O3

> <MASS>
242.26990

> <MONOISOTOPIC_MASS>
242.09429

> <CHARGE>
0

> <SMILES>
CC(C(O)=O)c1cccc(Oc2ccccc2)c1

> <INCHI>
InChI=1S/C15H14O3/c1-11(15(16)17)12-6-5-9-14(10-12)18-13-7-3-2-4-8-13/h2-11H,1H3,(H,16,17)

> <INCHIKEY>
RDJGLLICXDHJDY-UHFFFAOYSA-N

> <CAS_REGISTRY_NUMBER>
31879-05-7

> <REAXYS_REGISTRY_NUMBER>
2118687

> <CHEMIDPLUS>
31879-05-7

> <DRUGBANK_ACCESSION>
DB00573

> <KEGG_COMPOUND_ACCESSION>
C06997

> <KEGG_DRUG_ACCESSION>
D02350

> <NIST_CHEMISTRY_WEBBOOK>
31879-05-7

> <WIKIPEDIA_ACCESSION>
_Fenoprofen

> <PUBMED_CITATION>
21328296; 21342694; 25554116; 28166217; 30168706; 4616811

$$$$
ChEBI
  Marvin  09050811112D          

 12 12  0  0  0  0            999 V2000
    4.6586   -8.0766    0.0000 C   0  0  0  0  0  0  0  0  0  0  0  0
    5.3675   -7.6483    0.0000 C   0  0  0  0  0  0  0  0  0  0  0  0
    4.6723   -8.9037    0.0000 C   0  0  0  0  0  0  0  0  0  0  0  0
    3.9339   -7.6751    0.0000 O   0  0  0  0  0  0  0  0  0  0  0  0
    6.0876   -8.0487    0.0000 C   0  0  0  0  0  0  0  0  0  0  0  0
    5.4028   -9.3019    0.0000 C   0  0  0  0  0  0  0  0  0  0  0  0
    3.9662   -9.3305    0.0000 O   0  0  0  0  0  0  0  0  0  0  0  0
    3.2249   -8.1035    0.0000 C   0  0  0  0  0  0  0  0  0  0  0  0
    6.1072   -8.8722    0.0000 C   0  0  0  0  0  0  0  0  0  0  0  0
    6.7890   -7.6209    0.0000 C   0  0  0  0  0  0  0  0  0  0  0  0
    7.5131   -8.0148    0.0000 C   0  0  0  0  0  0  0  0  0  0  0  0
    7.5131   -8.8398    0.0000 C   0  0  0  0  0  0  0  0  0  0  0  0
  1  2  2  0  0  0  0
  1  3  1  0  0  0  0
  1  4  1  0  0  0  0
  2  5  1  0  0  0  0
  3  6  2  0  0  0  0
  3  7  1  0  0  0  0
  4  8  1  0  0  0  0
  5  9  2  0  0  0  0
  5 10  1  0  0  0  0
 10 11  2  0  0  0  0
  6  9  1  0  0  0  0
 11 12  1  0  0  0  0
M  END
> <ID>
CHEBI:50543

> <NAME>
cis-isoeugenol

> <STAR>
3

> <SYNONYM>
Isoeugenol cis-form; Isoeugenol (II); iso-Eugenol 1; cis-4-Propenylguaiacol; cis-2-Methoxy-4-propenylphenol; (Z)-Isoeugenol; (Z)-2-methoxy-4-propenylphenol

> <IUPAC_NAME>
2-methoxy-4-[(1Z)-prop-1-en-1-yl]phenol

> <FORMULA>
C10H12O2

> <MASS>
164.20108

> <MONOISOTOPIC_MASS>
164.08373

> <CHARGE>
0

> <SMILES>
COc1cc(\C=C/C)ccc1O

> <INCHI>
InChI=1S/C10H12O2/c1-3-4-8-5-6-9(11)10(7-8)12-2/h3-7,11H,1-2H3/b4-3-

> <INCHIKEY>
BJIOGJUNALELMI-ARJAWSKDSA-N

> <BEILSTEIN_REGISTRY_NUMBER>
1909603

> <CAS_REGISTRY_NUMBER>
5912-86-7

> <CHEMIDPLUS>
5912-86-7

> <NIST_CHEMISTRY_WEBBOOK>
5912-86-7

> <WIKIPEDIA_ACCESSION>
Isoeugenol

$$$$

Marvin  01261110492D          

 31 34  0  0  0  0            999 V2000
   -0.8250    0.4125    0.0000 C   0  0  2  0  0  0  0  0  0  0  0  0
   -0.8250   -0.4125    0.0000 C   0  0  0  0  0  0  0  0  0  0  0  0
    0.0000    0.4125    0.0000 C   0  0  2  0  0  0  0  0  0  0  0  0
    0.0000   -0.4125    0.0000 N   0  0  0  0  0  0  0  0  0  0  0  0
    0.7846   -0.6674    0.0000 C   0  0  2  0  0  0  0  0  0  0  0  0
    1.2695    0.0000    0.0000 C   0  0  0  0  0  0  0  0  0  0  0  0
    0.7846    0.6674    0.0000 S   0  0  0  0  0  0  0  0  0  0  0  0
    1.9883   -0.4050    0.0000 C   0  0  0  0  0  0  0  0  0  0  0  0
    1.9883    0.4050    0.0000 C   0  0  0  0  0  0  0  0  0  0  0  0
    1.0396   -1.4521    0.0000 C   0  0  0  0  0  0  0  0  0  0  0  0
    1.8465   -1.6236    0.0000 O   0  0  0  0  0  0  0  0  0  0  0  0
    0.4875   -2.0652    0.0000 O   0  0  0  0  0  0  0  0  0  0  0  0
   -1.5395    0.8250    0.0000 N   0  0  0  0  0  0  0  0  0  0  0  0
   -2.2539    0.4125    0.0000 C   0  0  0  0  0  0  0  0  0  0  0  0
   -2.2539   -0.2475    0.0000 O   0  0  0  0  0  0  0  0  0  0  0  0
   -1.4084   -0.9959    0.0000 O   0  0  0  0  0  0  0  0  0  0  0  0
    0.0000    1.2375    0.0000 H   0  0  0  0  0  0  0  0  0  0  0  0
   -3.8600    1.8184    0.0000 O   0  0  0  0  0  0  0  0  0  0  0  0
   -4.2736    1.1046    0.0000 N   0  0  0  0  0  0  0  0  0  0  0  0
   -3.7226    0.4907    0.0000 C   0  0  0  0  0  0  0  0  0  0  0  0
   -2.9684    0.8250    0.0000 C   0  0  0  0  0  0  0  0  0  0  0  0
   -3.0533    1.6456    0.0000 C   0  0  0  0  0  0  0  0  0  0  0  0
   -3.9361   -0.3062    0.0000 C   0  0  0  0  0  0  0  0  0  0  0  0
   -4.7231   -0.5539    0.0000 C   0  0  0  0  0  0  0  0  0  0  0  0
   -4.9020   -1.3593    0.0000 C   0  0  0  0  0  0  0  0  0  0  0  0
   -4.2941   -1.9170    0.0000 C   0  0  0  0  0  0  0  0  0  0  0  0
   -3.5071   -1.6693    0.0000 C   0  0  0  0  0  0  0  0  0  0  0  0
   -3.3282   -0.8639    0.0000 C   0  0  0  0  0  0  0  0  0  0  0  0
   -2.5313   -0.6504    0.0000 F   0  0  0  0  0  0  0  0  0  0  0  0
   -5.3064    0.0294    0.0000 Cl  0  0  0  0  0  0  0  0  0  0  0  0
   -2.4699    2.2289    0.0000 C   0  0  0  0  0  0  0  0  0  0  0  0
  1 13  1  1  0  0  0
  1  2  1  0  0  0  0
  2 16  2  0  0  0  0
  2  4  1  0  0  0  0
  4  5  1  0  0  0  0
  3  1  1  0  0  0  0
  3  4  1  0  0  0  0
  3  7  1  0  0  0  0
  5  6  1  0  0  0  0
  6  7  1  0  0  0  0
  6  8  1  0  0  0  0
  6  9  1  0  0  0  0
  5 10  1  6  0  0  0
 10 11  1  0  0  0  0
 10 12  2  0  0  0  0
 13 14  1  0  0  0  0
 14 15  2  0  0  0  0
  3 17  1  6  0  0  0
 14 21  1  0  0  0  0
 18 19  1  0  0  0  0
 19 20  2  0  0  0  0
 20 21  1  0  0  0  0
 21 22  2  0  0  0  0
 18 22  1  0  0  0  0
 20 23  1  0  0  0  0
 23 24  2  0  0  0  0
 24 25  1  0  0  0  0
 25 26  2  0  0  0  0
 26 27  1  0  0  0  0
 27 28  2  0  0  0  0
 23 28  1  0  0  0  0
 28 29  1  0  0  0  0
 24 30  1  0  0  0  0
 22 31  1  0  0  0  0
M  END
> <ID>
CHEBI:5098

> <NAME>
flucloxacillin

> <DEFINITION>
A penicillin compound having a 6β-[3-(2-chloro-6-fluorophenyl)-5-methyl-1,2-oxazole-4-carboxamido] side-chain.

> <STAR>
3

> <SYNONYM>
Flucloxacillin; flucloxacilina; Floxacillin; 3-(2-Chloro-6-fluorophenyl)-5-methyl-4-isoxazolylpenicillin; (2S,5R,6R)-6-({[3-(2-chloro-6-fluorophenyl)-5-methyl-1,2-oxazol-4-yl]carbonyl}amino)-3,3-dimethyl-7-oxo-4-thia-1-azabicyclo[3.2.0]heptane-2-carboxylic acid

> <IUPAC_NAME>
6beta-[3-(2-chloro-6-fluorophenyl)-5-methyl-1,2-oxazole-4-carboxamido]-2,2-dimethylpenam-3alpha-carboxylic acid

> <INN>
flucloxacillinum; flucloxacilline; flucloxacillin

> <BRAND_NAME>
Floxapen

> <FORMULA>
C19H17ClFN3O5S

> <MASS>
453.87200

> <MONOISOTOPIC_MASS>
453.05615

> <CHARGE>
0

> <SMILES>
[H][C@]12SC(C)(C)[C@@H](N1C(=O)[C@H]2NC(=O)c1c(C)onc1-c1c(F)cccc1Cl)C(O)=O

> <INCHI>
InChI=1S/C19H17ClFN3O5S/c1-7-10(12(23-29-7)11-8(20)5-4-6-9(11)21)15(25)22-13-16(26)24-14(18(27)28)19(2,3)30-17(13)24/h4-6,13-14,17H,1-3H3,(H,22,25)(H,27,28)/t13-,14+,17-/m1/s1

> <INCHIKEY>
UIOFUWFRIANQPC-JKIFEVAISA-N

> <BEILSTEIN_REGISTRY_NUMBER>
4771988

> <CAS_REGISTRY_NUMBER>
5250-39-5

> <REAXYS_REGISTRY_NUMBER>
4771988

> <CHEMIDPLUS>
5250-39-5

> <DRUGBANK_ACCESSION>
DB00301

> <KEGG_COMPOUND_ACCESSION>
C11748

> <KEGG_DRUG_ACCESSION>
D04196

> <WIKIPEDIA_ACCESSION>
Flucloxacillin

> <PUBMED_CITATION>
12569987; 15773973; 23032409; 23542420; 25998949; 29017833; 5481218

$$$$

Marvin  12090811042D          

 22 23  0  0  1  0            999 V2000
   -0.8250    0.8250    0.0000 C   0  0  1  0  0  0  0  0  0  0  0  0
    0.0000    0.0000    0.0000 N   0  0  0  0  0  0  0  0  0  0  0  0
    0.0000    0.8250    0.0000 C   0  0  2  0  0  0  0  0  0  0  0  0
   -0.8250    0.0000    0.0000 C   0  0  0  0  0  0  0  0  0  0  0  0
    0.7846   -0.2549    0.0000 C   0  0  2  0  0  0  0  0  0  0  0  0
    1.2696    0.4125    0.0000 C   0  0  0  0  0  0  0  0  0  0  0  0
    0.7846    1.0800    0.0000 S   0  0  0  0  0  0  0  0  0  0  0  0
    1.9883    0.0076    0.0000 C   0  0  0  0  0  0  0  0  0  0  0  0
    1.9883    0.8175    0.0000 C   0  0  0  0  0  0  0  0  0  0  0  0
   -1.4083   -0.5833    0.0000 O   0  0  0  0  0  0  0  0  0  0  0  0
    1.0396   -1.0395    0.0000 C   0  0  0  0  0  0  0  0  0  0  0  0
    1.8466   -1.2110    0.0000 O   0  0  0  0  0  0  0  0  0  0  0  0
    0.4875   -1.6526    0.0000 O   0  0  0  0  0  0  0  0  0  0  0  0
    0.0000    1.6500    0.0000 H   0  0  0  0  0  0  0  0  0  0  0  0
   -1.5395    1.2375    0.0000 N   0  0  0  0  0  0  0  0  0  0  0  0
   -2.2539    0.8250    0.0000 C   0  0  0  0  0  0  0  0  0  0  0  0
   -2.2539   -0.0001    0.0000 O   0  0  0  0  0  0  0  0  0  0  0  0
   -5.1118    0.8247    0.0000 C   0  0  0  0  0  0  0  0  0  0  0  0
   -5.8263    1.2371    0.0000 C   0  0  0  0  0  0  0  0  0  0  0  0
   -3.6829    0.8248    0.0000 S   0  0  0  0  0  0  0  0  0  0  0  0
   -2.9684    1.2373    0.0000 C   0  0  0  0  0  0  0  0  0  0  0  0
   -4.3974    1.2373    0.0000 C   0  0  0  0  0  0  0  0  0  0  0  0
  3  1  1  0  0  0  0
  1  4  1  0  0  0  0
  4  2  1  0  0  0  0
  5  2  1  0  0  0  0
  3  2  1  0  0  0  0
  3  7  1  0  0  0  0
 10  4  2  0  0  0  0
  6  5  1  0  0  0  0
  5 11  1  6  0  0  0
  7  6  1  0  0  0  0
  8  6  1  0  0  0  0
  9  6  1  0  0  0  0
 12 11  1  0  0  0  0
 13 11  2  0  0  0  0
  3 14  1  6  0  0  0
 16 15  1  0  0  0  0
 17 16  2  0  0  0  0
 21 16  1  0  0  0  0
 22 18  1  0  0  0  0
 19 18  2  0  0  0  0
 21 20  1  0  0  0  0
 22 20  1  0  0  0  0
  1 15  1  1  0  0  0
M  END
> <ID>
CHEBI:51207

> <NAME>
penicillin O

> <DEFINITION>
A penicillin where the side-chain N-acyl group is specified as allylmercaptoacetyl. Antibiotic isolated from Penicillium chrysogenum.

> <STAR>
3

> <SYNONYM>
penicillin AT; allylthiomethylpenicillin; allylmercaptomethylpenicillinic acid; allylmercaptomethylpenicillin; (2S,5R,6R)-6-{[(allylsulfanyl)acetyl]amino}-3,3-dimethyl-7-oxo-4-thia-1-azabicyclo[3.2.0]heptane-2-carboxylic acid; (2S,5R,6R)-3,3-dimethyl-7-oxo-6-{[(prop-2-en-1-ylsulfanyl)acetyl]amino}-4-thia-1-azabicyclo[3.2.0]heptane-2-carboxylic acid

> <IUPAC_NAME>
6beta-[(prop-2-en-1-ylsulfanyl)acetamido]-2,2-dimethylpenam-3alpha-carboxylic acid

> <INN>
almecillinum; almecilline; almecillin; almecilina

> <FORMULA>
C13H18N2O4S2

> <MASS>
330.42510

> <MONOISOTOPIC_MASS>
330.07080

> <CHARGE>
0

> <SMILES>
[H][C@]12SC(C)(C)[C@@H](N1C(=O)[C@H]2NC(=O)CSCC=C)C(O)=O

> <INCHI>
InChI=1S/C13H18N2O4S2/c1-4-5-20-6-7(16)14-8-10(17)15-9(12(18)19)13(2,3)21-11(8)15/h4,8-9,11H,1,5-6H2,2-3H3,(H,14,16)(H,18,19)/t8-,9+,11-/m1/s1

> <INCHIKEY>
QULKGELYPOJSLP-WCABBAIRSA-N

> <BEILSTEIN_REGISTRY_NUMBER>
44307

> <CAS_REGISTRY_NUMBER>
87-09-2

> <REAXYS_REGISTRY_NUMBER>
44307

> <CHEMIDPLUS>
87-09-2

> <KEGG_COMPOUND_ACCESSION>
C17405

> <PUBMED_CITATION>
13761469

$$$$

Marvin  12090815242D          

 24 26  0  0  1  0            999 V2000
   -0.8250    0.8250    0.0000 C   0  0  1  0  0  0  0  0  0  0  0  0
    0.0000    0.0000    0.0000 N   0  0  0  0  0  0  0  0  0  0  0  0
    0.0000    0.8250    0.0000 C   0  0  2  0  0  0  0  0  0  0  0  0
   -0.8250    0.0000    0.0000 C   0  0  0  0  0  0  0  0  0  0  0  0
    0.7846   -0.2549    0.0000 C   0  0  2  0  0  0  0  0  0  0  0  0
    1.2696    0.4125    0.0000 C   0  0  0  0  0  0  0  0  0  0  0  0
    0.7846    1.0800    0.0000 S   0  0  0  0  0  0  0  0  0  0  0  0
    1.9883    0.0076    0.0000 C   0  0  0  0  0  0  0  0  0  0  0  0
    1.9883    0.8175    0.0000 C   0  0  0  0  0  0  0  0  0  0  0  0
   -1.4083   -0.5833    0.0000 O   0  0  0  0  0  0  0  0  0  0  0  0
    1.0396   -1.0395    0.0000 C   0  0  0  0  0  0  0  0  0  0  0  0
    1.8466   -1.2110    0.0000 O   0  0  0  0  0  0  0  0  0  0  0  0
    0.4875   -1.6526    0.0000 O   0  0  0  0  0  0  0  0  0  0  0  0
    0.0000    1.6500    0.0000 H   0  0  0  0  0  0  0  0  0  0  0  0
   -1.5395    1.2375    0.0000 N   0  0  0  0  0  0  0  0  0  0  0  0
   -2.2540    0.8250    0.0000 C   0  0  0  0  0  0  0  0  0  0  0  0
   -2.9684    1.2375    0.0000 N   0  0  0  0  0  0  0  0  0  0  0  0
   -3.6501    0.7728    0.0000 C   0  0  0  0  0  0  0  0  0  0  0  0
   -2.9068    2.0602    0.0000 C   0  0  0  0  0  0  0  0  0  0  0  0
   -3.5116    2.6213    0.0000 C   0  0  0  0  0  0  0  0  0  0  0  0
   -4.4384    1.0159    0.0000 C   0  0  0  0  0  0  0  0  0  0  0  0
   -4.3273    2.4984    0.0000 C   0  0  0  0  0  0  0  0  0  0  0  0
   -4.7398    1.7839    0.0000 C   0  0  0  0  0  0  0  0  0  0  0  0
   -2.2540    0.0000    0.0000 H   0  0  0  0  0  0  0  0  0  0  0  0
  3  1  1  0  0  0  0
  1  4  1  0  0  0  0
  4  2  1  0  0  0  0
  5  2  1  0  0  0  0
  3  2  1  0  0  0  0
  3  7  1  0  0  0  0
 10  4  2  0  0  0  0
  6  5  1  0  0  0  0
  5 11  1  6  0  0  0
  7  6  1  0  0  0  0
  8  6  1  0  0  0  0
  9  6  1  0  0  0  0
 12 11  1  0  0  0  0
 13 11  2  0  0  0  0
  3 14  1  6  0  0  0
  1 15  1  1  0  0  0
 16 15  2  0  0  0  0
 17 16  1  0  0  0  0
 18 17  1  0  0  0  0
 19 17  1  0  0  0  0
 21 18  1  0  0  0  0
 20 19  1  0  0  0  0
 22 20  1  0  0  0  0
 23 21  1  0  0  0  0
 23 22  1  0  0  0  0
 16 24  1  4  0  0  0
M  END
> <ID>
CHEBI:51208

> <NAME>
mecillinam

> <DEFINITION>
A penicillin in which the 6β substituent is [(azepan-1-yl)methylidene]amino; an extended-spectrum penicillin antibiotic that binds specifically to penicillin binding protein 2 (PBP2), and is only considered to be active against Gram-negative bacteria.

> <STAR>
3

> <SYNONYM>
penicillin HX; amdinocillin; (2S,5R,6R)-6-[(azepan-1-ylmethylidene)amino]-3,3-dimethyl-7-oxo-4-thia-1-azabicyclo[3.2.0]heptane-2-carboxylic acid

> <IUPAC_NAME>
6beta-{[(azepan-1-yl)methylidene]amino}-2,2-dimethylpenam-3alpha-carboxylic acid

> <INN>
mecillinamum; mecillinam; mecilinamo

> <BRAND_NAME>
Coactin

> <FORMULA>
C15H23N3O3S

> <MASS>
325.42754

> <MONOISOTOPIC_MASS>
325.14601

> <CHARGE>
0

> <SMILES>
[H]C(=N[C@@H]1C(=O)N2[C@@H](C(O)=O)C(C)(C)S[C@]12[H])N1CCCCCC1

> <INCHI>
InChI=1S/C15H23N3O3S/c1-15(2)11(14(20)21)18-12(19)10(13(18)22-15)16-9-17-7-5-3-4-6-8-17/h9-11,13H,3-8H2,1-2H3,(H,20,21)/t10-,11+,13-/m1/s1

> <INCHIKEY>
BWWVAEOLVKTZFQ-NTZNESFSSA-N

> <BEILSTEIN_REGISTRY_NUMBER>
1223657

> <CAS_REGISTRY_NUMBER>
32887-01-7

> <REAXYS_REGISTRY_NUMBER>
1223657

> <CHEMIDPLUS>
32887-01-7

> <DRUGBANK_ACCESSION>
DB01163

> <LINCS_ACCESSION>
LSM-5528

$$$$

Marvin  12100814552D          

 32 34  0  0  1  0            999 V2000
   -0.8250    0.8250    0.0000 C   0  0  1  0  0  0  0  0  0  0  0  0
    0.0000    0.0000    0.0000 N   0  0  0  0  0  0  0  0  0  0  0  0
    0.0000    0.8250    0.0000 C   0  0  2  0  0  0  0  0  0  0  0  0
   -0.8250    0.0000    0.0000 C   0  0  0  0  0  0  0  0  0  0  0  0
    1.2696    0.4125    0.0000 C   0  0  0  0  0  0  0  0  0  0  0  0
    0.7846    1.0800    0.0000 S   0  0  0  0  0  0  0  0  0  0  0  0
    1.9883    0.0076    0.0000 C   0  0  0  0  0  0  0  0  0  0  0  0
    1.9883    0.8175    0.0000 C   0  0  0  0  0  0  0  0  0  0  0  0
   -1.4083   -0.5833    0.0000 O   0  0  0  0  0  0  0  0  0  0  0  0
    0.0000    1.6500    0.0000 H   0  0  0  0  0  0  0  0  0  0  0  0
   -1.5395    1.2375    0.0000 N   0  0  0  0  0  0  0  0  0  0  0  0
   -2.2540    0.8250    0.0000 C   0  0  0  0  0  0  0  0  0  0  0  0
   -2.9684    1.2375    0.0000 N   0  0  0  0  0  0  0  0  0  0  0  0
   -3.6501    0.7728    0.0000 C   0  0  0  0  0  0  0  0  0  0  0  0
   -2.9068    2.0602    0.0000 C   0  0  0  0  0  0  0  0  0  0  0  0
   -3.5116    2.6213    0.0000 C   0  0  0  0  0  0  0  0  0  0  0  0
   -4.4384    1.0159    0.0000 C   0  0  0  0  0  0  0  0  0  0  0  0
   -4.3273    2.4984    0.0000 C   0  0  0  0  0  0  0  0  0  0  0  0
   -4.7398    1.7839    0.0000 C   0  0  0  0  0  0  0  0  0  0  0  0
   -2.2540    0.0000    0.0000 H   0  0  0  0  0  0  0  0  0  0  0  0
    3.6425   -1.0799    0.0000 C   0  0  0  0  0  0  0  0  0  0  0  0
    4.3570   -1.4924    0.0000 C   0  0  0  0  0  0  0  0  0  0  0  0
    2.9280   -1.4924    0.0000 O   0  0  0  0  0  0  0  0  0  0  0  0
    2.2135   -1.0799    0.0000 C   0  0  0  0  0  0  0  0  0  0  0  0
    3.6425   -0.2549    0.0000 O   0  0  0  0  0  0  0  0  0  0  0  0
    5.0714   -1.0799    0.0000 C   0  0  0  0  0  0  0  0  0  0  0  0
    4.3570   -2.3174    0.0000 C   0  0  0  0  0  0  0  0  0  0  0  0
    0.7846   -0.2549    0.0000 C   0  0  2  0  0  0  0  0  0  0  0  0
    0.7846   -1.0799    0.0000 C   0  0  0  0  0  0  0  0  0  0  0  0
    1.4991   -1.4924    0.0000 O   0  0  0  0  0  0  0  0  0  0  0  0
    0.0700   -1.4923    0.0000 O   0  0  0  0  0  0  0  0  0  0  0  0
    5.0714   -1.9049    0.0000 C   0  0  0  0  0  0  0  0  0  0  0  0
  3  1  1  0  0  0  0
  1  4  1  0  0  0  0
  4  2  1  0  0  0  0
 28  2  1  0  0  0  0
  3  2  1  0  0  0  0
  3  6  1  0  0  0  0
  9  4  2  0  0  0  0
  5 28  1  0  0  0  0
  6  5  1  0  0  0  0
  7  5  1  0  0  0  0
  8  5  1  0  0  0  0
  3 10  1  6  0  0  0
  1 11  1  1  0  0  0
 12 11  2  0  0  0  0
 13 12  1  0  0  0  0
 14 13  1  0  0  0  0
 15 13  1  0  0  0  0
 17 14  1  0  0  0  0
 16 15  1  0  0  0  0
 18 16  1  0  0  0  0
 19 17  1  0  0  0  0
 19 18  1  0  0  0  0
 12 20  1  4  0  0  0
 23 21  1  0  0  0  0
 22 21  1  0  0  0  0
 25 21  2  0  0  0  0
 26 22  1  0  0  0  0
 27 22  1  0  0  0  0
 24 30  1  0  0  0  0
 24 23  1  0  0  0  0
 28 29  1  6  0  0  0
 30 29  1  0  0  0  0
 31 29  2  0  0  0  0
 22 32  1  0  0  0  0
M  END
> <ID>
CHEBI:51210

> <NAME>
pivmecillinam

> <DEFINITION>
A penicillanic acid ester that is the [(2,2-dimethylpropanoyl)oxy]methyl ester and prodrug of mecillinam.

> <STAR>
3

> <SYNONYM>
amdinocillin, pivaloyloxymethyl ester; amdinocillin pivoxil; [(2,2-dimethylpropanoyl)oxy]methyl (2S,5R,6R)-6-[(azepan-1-ylmethylidene)amino]-3,3-dimethyl-7-oxo-4-thia-1-azabicyclo[3.2.0]heptane-2-carboxylate

> <IUPAC_NAME>
[(2,2-dimethylpropanoyl)oxy]methyl 6beta-[(azepan-1-ylmethylidene)amino]-2,2-dimethylpenam-3alpha-carboxylate

> <INN>
pivmecillinamum; pivmecillinam; pivmecilinamo

> <FORMULA>
C21H33N3O5S

> <MASS>
439.56994

> <MONOISOTOPIC_MASS>
439.21409

> <CHARGE>
0

> <SMILES>
[H]C(=N[C@@H]1C(=O)N2[C@@H](C(=O)OCOC(=O)C(C)(C)C)C(C)(C)S[C@]12[H])N1CCCCCC1

> <INCHI>
InChI=1S/C21H33N3O5S/c1-20(2,3)19(27)29-13-28-18(26)15-21(4,5)30-17-14(16(25)24(15)17)22-12-23-10-8-6-7-9-11-23/h12,14-15,17H,6-11,13H2,1-5H3/t14-,15+,17-/m1/s1

> <INCHIKEY>
NPGNOVNWUSPMDP-HLLBOEOZSA-N

> <BEILSTEIN_REGISTRY_NUMBER>
9014155

> <CAS_REGISTRY_NUMBER>
32886-97-8

> <CHEMIDPLUS>
32886-97-8

> <DRUGBANK_ACCESSION>
DB01605

> <LINCS_ACCESSION>
LSM-3494

$$$$

Marvin  01290915332D          

 39 43  0  0  0  0            999 V2000
    0.0000   -0.4125    0.0000 C   0  0  0  0  0  0  0  0  0  0  0  0
   -0.7145   -0.8250    0.0000 C   0  0  0  0  0  0  0  0  0  0  0  0
   -1.4289   -0.4125    0.0000 C   0  0  0  0  0  0  0  0  0  0  0  0
   -1.4289    0.4125    0.0000 C   0  0  0  0  0  0  0  0  0  0  0  0
   -0.7145    0.8250    0.0000 N   0  0  0  0  0  0  0  0  0  0  0  0
    0.0000    0.4125    0.0000 C   0  0  0  0  0  0  0  0  0  0  0  0
    0.7145    0.8250    0.0000 C   0  0  0  0  0  0  0  0  0  0  0  0
    1.4289    0.4125    0.0000 C   0  0  0  0  0  0  0  0  0  0  0  0
    1.4289   -0.4125    0.0000 C   0  0  0  0  0  0  0  0  0  0  0  0
    0.7145   -0.8250    0.0000 N   0  0  0  0  0  0  0  0  0  0  0  0
    6.5407   -0.4126    0.0000 N   0  0  0  0  0  0  0  0  0  0  0  0
    6.5408    0.4124    0.0000 C   0  0  1  0  0  0  0  0  0  0  0  0
    5.7157   -0.4126    0.0000 C   0  0  0  0  0  0  0  0  0  0  0  0
    5.7158    0.4124    0.0000 C   0  0  1  0  0  0  0  0  0  0  0  0
    7.3253   -0.6675    0.0000 C   0  0  2  0  0  0  0  0  0  0  0  0
    7.3254    0.6674    0.0000 S   0  0  0  0  0  0  0  0  0  0  0  0
    7.8102   -0.0002    0.0000 C   0  0  0  0  0  0  0  0  0  0  0  0
    5.0013    0.8249    0.0000 N   0  0  0  0  0  0  0  0  0  0  0  0
    2.1434    0.8249    0.0000 C   0  0  0  0  0  0  0  0  0  0  0  0
    4.2869    0.4124    0.0000 C   0  0  0  0  0  0  0  0  0  0  0  0
    2.8579    0.4124    0.0000 N   0  0  0  0  0  0  0  0  0  0  0  0
    3.5724    0.8249    0.0000 C   0  0  2  0  0  0  0  0  0  0  0  0
    7.5803   -1.4521    0.0000 C   0  0  0  0  0  0  0  0  0  0  0  0
    2.1434    1.6499    0.0000 O   0  0  0  0  0  0  0  0  0  0  0  0
    4.2868   -0.4126    0.0000 O   0  0  0  0  0  0  0  0  0  0  0  0
    8.3872   -1.6237    0.0000 O   0  0  0  0  0  0  0  0  0  0  0  0
    3.5724    1.6499    0.0000 C   0  0  0  0  0  0  0  0  0  0  0  0
    0.7145    1.6500    0.0000 O   0  0  0  0  0  0  0  0  0  0  0  0
    7.0282   -2.0652    0.0000 O   0  0  0  0  0  0  0  0  0  0  0  0
    8.5290   -0.4052    0.0000 C   0  0  0  0  0  0  0  0  0  0  0  0
    8.5291    0.4048    0.0000 C   0  0  0  0  0  0  0  0  0  0  0  0
    2.8579    2.0624    0.0000 C   0  0  0  0  0  0  0  0  0  0  0  0
    4.2869    2.0624    0.0000 C   0  0  0  0  0  0  0  0  0  0  0  0
    2.8579    2.8874    0.0000 C   0  0  0  0  0  0  0  0  0  0  0  0
    4.2869    2.8874    0.0000 C   0  0  0  0  0  0  0  0  0  0  0  0
    3.5724    3.2999    0.0000 C   0  0  0  0  0  0  0  0  0  0  0  0
    5.1323   -0.9959    0.0000 O   0  0  0  0  0  0  0  0  0  0  0  0
    6.5408    1.2374    0.0000 H   0  0  0  0  0  0  0  0  0  0  0  0
    4.2868    1.2374    0.0000 H   0  0  0  0  0  0  0  0  0  0  0  0
  3  4  2  0  0  0  0
  4  5  1  0  0  0  0
  2  3  1  0  0  0  0
  1  2  2  0  0  0  0
  1  6  1  0  0  0  0
  5  6  2  0  0  0  0
  6  7  1  0  0  0  0
 28  7  1  0  0  0  0
  1 10  1  0  0  0  0
  9 10  2  0  0  0  0
  8  9  1  0  0  0  0
  7  8  2  0  0  0  0
 19  8  1  0  0  0  0
 12 11  1  0  0  0  0
 13 11  1  0  0  0  0
 15 11  1  0  0  0  0
 16 12  1  0  0  0  0
 14 12  1  0  0  0  0
 14 13  1  0  0  0  0
 14 18  1  1  0  0  0
 17 15  1  0  0  0  0
 15 23  1  6  0  0  0
 17 16  1  0  0  0  0
 30 17  1  0  0  0  0
 31 17  1  0  0  0  0
 20 18  1  0  0  0  0
 21 19  1  0  0  0  0
 24 19  2  0  0  0  0
 22 20  1  0  0  0  0
 25 20  2  0  0  0  0
 22 21  1  0  0  0  0
 22 27  1  0  0  0  0
 26 23  1  0  0  0  0
 29 23  2  0  0  0  0
 32 27  1  0  0  0  0
 33 27  2  0  0  0  0
 34 32  2  0  0  0  0
 35 33  1  0  0  0  0
 36 34  1  0  0  0  0
 36 35  2  0  0  0  0
 13 37  2  0  0  0  0
 12 38  1  6  0  0  0
 22 39  1  1  0  0  0
M  END
> <ID>
CHEBI:51691

> <NAME>
apalcillin

> <STAR>
3

> <SYNONYM>
apalcilina; (2S,5R,6R)-6-{[(2R)-2-{[(4-hydroxy-1,5-naphthyridin-3-yl)carbonyl]amino}-2-phenylacetyl]amino}-3,3-dimethyl-7-oxo-4-thia-1-azabicyclo[3.2.0]heptane-2-carboxylic acid

> <IUPAC_NAME>
6beta-{(2R)-2-[(4-hydroxy-1,5-naphthyridin-3-yl)carboxamido]-2-phenylacetamido}-2,2-dimethylpenam-3alpha-carboxylic acid

> <INN>
apalcillinum; apalcilline; apalcillin

> <FORMULA>
C25H23N5O6S

> <MASS>
521.54622

> <MONOISOTOPIC_MASS>
521.13690

> <CHARGE>
0

> <SMILES>
[H][C@]12SC(C)(C)[C@@H](N1C(=O)[C@H]2NC(=O)[C@]([H])(NC(=O)c1cnc2cccnc2c1O)c1ccccc1)C(O)=O

> <INCHI>
InChI=1S/C25H23N5O6S/c1-25(2)19(24(35)36)30-22(34)17(23(30)37-25)29-21(33)15(12-7-4-3-5-8-12)28-20(32)13-11-27-14-9-6-10-26-16(14)18(13)31/h3-11,15,17,19,23H,1-2H3,(H,27,31)(H,28,32)(H,29,33)(H,35,36)/t15-,17-,19+,23-/m1/s1

> <INCHIKEY>
XMQVYNAURODYCQ-SLFBBCNNSA-N

> <BEILSTEIN_REGISTRY_NUMBER>
6494943

> <CAS_REGISTRY_NUMBER>
63469-19-2

> <CHEMIDPLUS>
63469-19-2

$$$$

Marvin  02050914442D          

 29 31  0  0  0  0            999 V2000
    0.0000    0.8250    0.0000 N   0  0  0  0  0  0  0  0  0  0  0  0
    0.7145    0.4125    0.0000 C   0  0  2  0  0  0  0  0  0  0  0  0
    0.7145   -0.4125    0.0000 C   0  0  0  0  0  0  0  0  0  0  0  0
   -0.7145   -0.4125    0.0000 O   0  0  0  0  0  0  0  0  0  0  0  0
   -0.7145    0.4125    0.0000 C   0  0  0  0  0  0  0  0  0  0  0  0
    1.5395   -0.4125    0.0000 N   0  0  0  0  0  0  0  0  0  0  0  0
    1.5395    0.4125    0.0000 C   0  0  2  0  0  0  0  0  0  0  0  0
    2.3241   -0.6674    0.0000 C   0  0  2  0  0  0  0  0  0  0  0  0
    2.8090    0.0000    0.0000 C   0  0  0  0  0  0  0  0  0  0  0  0
    2.3241    0.6674    0.0000 S   0  0  0  0  0  0  0  0  0  0  0  0
    3.5278   -0.4050    0.0000 C   0  0  0  0  0  0  0  0  0  0  0  0
    3.5278    0.4050    0.0000 C   0  0  0  0  0  0  0  0  0  0  0  0
    2.5790   -1.4521    0.0000 C   0  0  0  0  0  0  0  0  0  0  0  0
    3.3860   -1.6236    0.0000 O   0  0  0  0  0  0  0  0  0  0  0  0
    2.0270   -2.0652    0.0000 O   0  0  0  0  0  0  0  0  0  0  0  0
   -1.4289    0.8250    0.0000 C   0  0  0  0  0  0  0  0  0  0  0  0
   -2.1434    0.4125    0.0000 C   0  0  0  0  0  0  0  0  0  0  0  0
   -1.4289    1.6500    0.0000 C   0  0  0  0  0  0  0  0  0  0  0  0
   -2.1434   -0.4125    0.0000 O   0  0  0  0  0  0  0  0  0  0  0  0
   -2.8579    0.8250    0.0000 O   0  0  0  0  0  0  0  0  0  0  0  0
   -2.0964    2.1349    0.0000 C   0  0  0  0  0  0  0  0  0  0  0  0
   -1.8414    2.9195    0.0000 C   0  0  0  0  0  0  0  0  0  0  0  0
   -1.0164    2.9195    0.0000 S   0  0  0  0  0  0  0  0  0  0  0  0
   -0.7615    2.1349    0.0000 C   0  0  0  0  0  0  0  0  0  0  0  0
    1.5395    1.2375    0.0000 H   0  0  0  0  0  0  0  0  0  0  0  0
    0.1311   -0.9959    0.0000 O   0  0  0  0  0  0  0  0  0  0  0  0
   -2.1434    1.2375    0.0000 H   0  0  0  0  0  0  0  0  0  0  0  0
    0.7145    1.2375    0.0000 O   0  0  0  0  0  0  0  0  0  0  0  0
    1.2979    1.8209    0.0000 C   0  0  0  0  0  0  0  0  0  0  0  0
  5  4  2  0  0  0  0
  5 16  1  0  0  0  0
  7  2  1  0  0  0  0
  2  3  1  0  0  0  0
  3  6  1  0  0  0  0
  1  5  1  0  0  0  0
  2  1  1  1  0  0  0
  7  6  1  0  0  0  0
  6  8  1  0  0  0  0
  8  9  1  0  0  0  0
  9 10  1  0  0  0  0
  7 10  1  0  0  0  0
  9 11  1  0  0  0  0
  9 12  1  0  0  0  0
  8 13  1  6  0  0  0
 13 14  1  0  0  0  0
 13 15  2  0  0  0  0
 16 17  1  0  0  0  0
 16 18  1  0  0  0  0
 17 19  2  0  0  0  0
 17 20  1  0  0  0  0
 18 21  1  0  0  0  0
 21 22  2  0  0  0  0
 22 23  1  0  0  0  0
 23 24  1  0  0  0  0
 18 24  2  0  0  0  0
  7 25  1  6  0  0  0
  3 26  2  0  0  0  0
 16 27  1  0  0  0  0
  2 28  1  0  0  0  0
 28 29  1  0  0  0  0
M  END
> <ID>
CHEBI:51817

> <NAME>
temocillin

> <DEFINITION>
A penicillin compound having a 6α-methoxy and 6β-[2-carboxy(thiophen-3-yl)acetamido side-groups.

> <STAR>
3

> <SYNONYM>
N-((2S,5R,6S)-2-carboxy-6-methoxy-3,3-dimethyl-7-oxo-4-thia-1-azabicyclo(3.2.0)hept-6-yl)-3-thiophenemalonamic acid; (2S,5R,6S)-6-{[carboxy(thiophen-3-yl)acetyl]amino}-6-methoxy-3,3-dimethyl-7-oxo-4-thia-1-azabicyclo[3.2.0]heptane-2-carboxylic acid; (2S,5R,6S)-6-{[carboxy(3-thienyl)acetyl]amino}-6-methoxy-3,3-dimethyl-7-oxo-4-thia-1-azabicyclo[3.2.0]heptane-2-carboxylic acid; (2S,5R,6S)-6-[2-carboxy(thiophen-3-yl)acetamido]-6-methoxy-3,3-dimethyl-7-oxo-4-thia-1-azabicyclo[3.2.0]heptane-2-carboxylic acid

> <IUPAC_NAME>
6beta-[carboxy(thiophen-3-yl)acetamido]-6-methoxy-2,2-dimethylpenam-3alpha-carboxylic acid

> <INN>
temocillinum; temocilline; temocillina; temocillin

> <FORMULA>
C16H18N2O7S2

> <MASS>
414.45540

> <MONOISOTOPIC_MASS>
414.05554

> <CHARGE>
0

> <SMILES>
[H][C@]12SC(C)(C)[C@@H](N1C(=O)[C@]2(NC(=O)C([H])(C(O)=O)c1ccsc1)OC)C(O)=O

> <INCHI>
InChI=1S/C16H18N2O7S2/c1-15(2)9(12(22)23)18-13(24)16(25-3,14(18)27-15)17-10(19)8(11(20)21)7-4-5-26-6-7/h4-6,8-9,14H,1-3H3,(H,17,19)(H,20,21)(H,22,23)/t8?,9-,14+,16-/m0/s1

> <INCHIKEY>
BVCKFLJARNKCSS-DWPRYXJFSA-N

> <BEILSTEIN_REGISTRY_NUMBER>
1094670

> <CAS_REGISTRY_NUMBER>
66148-78-5

> <REAXYS_REGISTRY_NUMBER>
1094670

> <CHEMIDPLUS>
66148-78-5

> <KEGG_DRUG_ACCESSION>
D06064

> <PUBMED_CITATION>
29017833

$$$$

Marvin  02280917122D          

 36 40  0  0  0  0            999 V2000
    0.0000    0.8250    0.0000 C   0  0  0  0  0  0  0  0  0  0  0  0
    0.7145    0.4125    0.0000 C   0  0  0  0  0  0  0  0  0  0  0  0
    0.7145   -0.4125    0.0000 C   0  0  0  0  0  0  0  0  0  0  0  0
    0.0000   -0.8250    0.0000 C   0  0  0  0  0  0  0  0  0  0  0  0
   -0.7145   -0.4125    0.0000 C   0  0  0  0  0  0  0  0  0  0  0  0
   -0.7145    0.4125    0.0000 C   0  0  0  0  0  0  0  0  0  0  0  0
    2.1434   -2.0625    0.0000 C   0  0  2  0  0  0  0  0  0  0  0  0
    2.1434   -2.8875    0.0000 C   0  0  0  0  0  0  0  0  0  0  0  0
    2.9684   -2.8875    0.0000 N   0  0  0  0  0  0  0  0  0  0  0  0
    2.9684   -2.0625    0.0000 C   0  0  2  0  0  0  0  0  0  0  0  0
    3.7530   -3.1424    0.0000 C   0  0  2  0  0  0  0  0  0  0  0  0
    4.2380   -2.4750    0.0000 C   0  0  0  0  0  0  0  0  0  0  0  0
    3.7530   -1.8076    0.0000 S   0  0  0  0  0  0  0  0  0  0  0  0
    4.9567   -2.8800    0.0000 C   0  0  0  0  0  0  0  0  0  0  0  0
    4.9567   -2.0700    0.0000 C   0  0  0  0  0  0  0  0  0  0  0  0
    4.0080   -3.9271    0.0000 C   0  0  0  0  0  0  0  0  0  0  0  0
    4.8149   -4.0986    0.0000 O   0  0  0  0  0  0  0  0  0  0  0  0
    3.4559   -4.5402    0.0000 O   0  0  0  0  0  0  0  0  0  0  0  0
    1.4289   -1.6500    0.0000 N   0  0  0  0  0  0  0  0  0  0  0  0
    0.7145   -2.0625    0.0000 C   0  0  0  0  0  0  0  0  0  0  0  0
    0.0000   -1.6500    0.0000 C   0  0  0  0  0  0  0  0  0  0  0  0
   -0.7145   -2.0625    0.0000 C   0  0  0  0  0  0  0  0  0  0  0  0
    0.7145   -2.8875    0.0000 O   0  0  0  0  0  0  0  0  0  0  0  0
   -0.7145   -2.8875    0.0000 O   0  0  0  0  0  0  0  0  0  0  0  0
    1.5600   -3.4709    0.0000 O   0  0  0  0  0  0  0  0  0  0  0  0
    2.9684   -1.2375    0.0000 H   0  0  0  0  0  0  0  0  0  0  0  0
   -1.4289   -1.6500    0.0000 O   0  0  0  0  0  0  0  0  0  0  0  0
   -2.1434   -2.0625    0.0000 C   0  0  0  0  0  0  0  0  0  0  0  0
   -2.1434   -2.8875    0.0000 C   0  0  0  0  0  0  0  0  0  0  0  0
   -2.8578   -1.6500    0.0000 C   0  0  0  0  0  0  0  0  0  0  0  0
   -2.8578   -3.3000    0.0000 C   0  0  0  0  0  0  0  0  0  0  0  0
   -3.5723   -2.0625    0.0000 C   0  0  0  0  0  0  0  0  0  0  0  0
   -3.5723   -2.8875    0.0000 C   0  0  0  0  0  0  0  0  0  0  0  0
   -4.3569   -1.8076    0.0000 C   0  0  0  0  0  0  0  0  0  0  0  0
   -4.8419   -2.4750    0.0000 C   0  0  0  0  0  0  0  0  0  0  0  0
   -4.3569   -3.1424    0.0000 C   0  0  0  0  0  0  0  0  0  0  0  0
  6  1  1  0  0  0  0
  1  2  2  0  0  0  0
  2  3  1  0  0  0  0
  4  3  2  0  0  0  0
 21  4  1  0  0  0  0
  5  6  2  0  0  0  0
  4  5  1  0  0  0  0
  7  8  1  0  0  0  0
  8  9  1  0  0  0  0
 10  9  1  0  0  0  0
 10  7  1  0  0  0  0
  9 11  1  0  0  0  0
 11 12  1  0  0  0  0
 12 13  1  0  0  0  0
 10 13  1  0  0  0  0
 12 14  1  0  0  0  0
 12 15  1  0  0  0  0
 11 16  1  6  0  0  0
 16 17  1  0  0  0  0
 16 18  2  0  0  0  0
  7 19  1  1  0  0  0
 19 20  1  0  0  0  0
 20 21  1  0  0  0  0
 21 22  1  0  0  0  0
 20 23  2  0  0  0  0
 22 24  2  0  0  0  0
 22 27  1  0  0  0  0
  8 25  2  0  0  0  0
 10 26  1  6  0  0  0
 28 27  1  0  0  0  0
 29 28  2  0  0  0  0
 30 28  1  0  0  0  0
 31 29  1  0  0  0  0
 32 30  2  0  0  0  0
 33 31  2  0  0  0  0
 33 32  1  0  0  0  0
 34 32  1  0  0  0  0
 36 33  1  0  0  0  0
 35 34  1  0  0  0  0
 36 35  1  0  0  0  0
M  END
> <ID>
CHEBI:52015

> <NAME>
carindacillin

> <STAR>
3

> <SYNONYM>
indanyl carbenicillin; carbenicillin indanyl; 6beta-{2-[(2,3-dihydro-1H-inden-5-yloxy)carbonyl]-2-phenylacetamido}-2,2-dimethylpenam-3alpha-carboxylic acid; (2S,5R,6R)-6-{[3-(2,3-dihydro-1H-inden-5-yloxy)-3-oxo-2-phenylpropanoyl]amino}-3,3-dimethyl-7-oxo-4-thia-1-azabicyclo[3.2.0]heptane-2-carboxylic acid

> <IUPAC_NAME>
6beta-[3-(2,3-dihydro-1H-inden-5-yloxy)-3-oxo-2-phenylpropanamido]-2,2-dimethylpenam-3alpha-carboxylic acid

> <INN>
carindacillinum; carindacilline; carindacillin; carindacilina

> <FORMULA>
C26H26N2O6S

> <MASS>
494.55900

> <MONOISOTOPIC_MASS>
494.15116

> <CHARGE>
0

> <SMILES>
[H][C@]12SC(C)(C)[C@@H](N1C(=O)[C@H]2NC(=O)C(C(=O)Oc1ccc2CCCc2c1)c1ccccc1)C(O)=O

> <INCHI>
InChI=1S/C26H26N2O6S/c1-26(2)20(24(31)32)28-22(30)19(23(28)35-26)27-21(29)18(15-7-4-3-5-8-15)25(33)34-17-12-11-14-9-6-10-16(14)13-17/h3-5,7-8,11-13,18-20,23H,6,9-10H2,1-2H3,(H,27,29)(H,31,32)/t18?,19-,20+,23-/m1/s1

> <INCHIKEY>
JIRBAUWICKGBFE-MNRDOXJOSA-N

> <BEILSTEIN_REGISTRY_NUMBER>
5406175

> <CAS_REGISTRY_NUMBER>
35531-88-5

> <CHEMIDPLUS>
35531-88-5

> <KEGG_DRUG_ACCESSION>
D07621

$$$$

Marvin  03050913502D          

 26 28  0  0  1  0            999 V2000
    9.7633   -3.9327    0.0000 C   0  0  2  0  0  0  0  0  0  0  0  0
    9.7633   -4.7577    0.0000 C   0  0  0  0  0  0  0  0  0  0  0  0
   10.5883   -3.9327    0.0000 C   0  0  2  0  0  0  0  0  0  0  0  0
   10.5883   -4.7577    0.0000 N   0  0  0  0  0  0  0  0  0  0  0  0
   11.3730   -5.0126    0.0000 C   0  0  2  0  0  0  0  0  0  0  0  0
   11.8579   -4.3452    0.0000 C   0  0  0  0  0  0  0  0  0  0  0  0
   11.3730   -3.6778    0.0000 S   0  0  0  0  0  0  0  0  0  0  0  0
   12.5767   -4.7502    0.0000 C   0  0  0  0  0  0  0  0  0  0  0  0
   12.5767   -3.9402    0.0000 C   0  0  0  0  0  0  0  0  0  0  0  0
   11.6280   -5.7973    0.0000 C   0  0  0  0  0  0  0  0  0  0  0  0
   12.4349   -5.9688    0.0000 O   0  0  0  0  0  0  0  0  0  0  0  0
   11.0758   -6.4104    0.0000 O   0  0  0  0  0  0  0  0  0  0  0  0
    9.0488   -3.5202    0.0000 N   0  0  0  0  0  0  0  0  0  0  0  0
    9.1800   -5.3411    0.0000 O   0  0  0  0  0  0  0  0  0  0  0  0
   10.5883   -3.1077    0.0000 H   0  0  0  0  0  0  0  0  0  0  0  0
    8.3343   -3.9327    0.0000 C   0  0  0  0  0  0  0  0  0  0  0  0
    8.3343   -4.7577    0.0000 O   0  0  0  0  0  0  0  0  0  0  0  0
    7.6199   -3.5202    0.0000 C   0  0  1  0  0  0  0  0  0  0  0  0
    6.9054   -3.9327    0.0000 C   0  0  0  0  0  0  0  0  0  0  0  0
    6.1909   -3.5202    0.0000 C   0  0  0  0  0  0  0  0  0  0  0  0
    5.4765   -3.9327    0.0000 C   0  0  0  0  0  0  0  0  0  0  0  0
    5.4765   -4.7577    0.0000 C   0  0  0  0  0  0  0  0  0  0  0  0
    6.1909   -5.1702    0.0000 C   0  0  0  0  0  0  0  0  0  0  0  0
    6.9054   -4.7577    0.0000 C   0  0  0  0  0  0  0  0  0  0  0  0
    7.6199   -2.6952    0.0000 N   0  0  0  0  0  0  0  0  0  0  0  0
    6.9054   -2.2827    0.0000 C   0  0  0  0  0  0  0  0  0  0  0  0
  1 13  1  1  0  0  0
  1  2  1  0  0  0  0
  2 14  2  0  0  0  0
  2  4  1  0  0  0  0
  4  5  1  0  0  0  0
  3  1  1  0  0  0  0
  3  4  1  0  0  0  0
  3  7  1  0  0  0  0
  5  6  1  0  0  0  0
  6  7  1  0  0  0  0
  6  8  1  0  0  0  0
  6  9  1  0  0  0  0
  5 10  1  6  0  0  0
 10 11  1  0  0  0  0
 10 12  2  0  0  0  0
  3 15  1  6  0  0  0
 13 16  1  0  0  0  0
 16 17  2  0  0  0  0
 16 18  1  0  0  0  0
 18 19  1  0  0  0  0
 24 19  2  0  0  0  0
 20 19  1  0  0  0  0
 20 21  2  0  0  0  0
 21 22  1  0  0  0  0
 22 23  2  0  0  0  0
 23 24  1  0  0  0  0
 18 25  1  1  0  0  0
 25 26  2  0  0  0  0
M  END
> <ID>
CHEBI:52060

> <NAME>
metampicillin

> <DEFINITION>
A penicillin compound having a 6β-(2R)-2-(methylideneamino)-2-phenylacetamido side-group.

> <STAR>
3

> <SYNONYM>
6beta-[(2R)-2-(methylideneamino)-2-phenylacetamido]penicillanic acid; (2S,5R,6R)-3,3-dimethyl-6-{[(2R)-2-(methylideneamino)-2-phenylacetyl]amino}-7-oxo-4-thia-1-azabicyclo[3.2.0]heptane-2-carboxylic acid

> <IUPAC_NAME>
6beta-[(2R)-2-(methylideneamino)-2-phenylacetamido]-2,2-dimethylpenam-3alpha-carboxylic acid

> <INN>
metampicillin

> <FORMULA>
C17H19N3O4S

> <MASS>
361.41500

> <MONOISOTOPIC_MASS>
361.10963

> <CHARGE>
0

> <SMILES>
[H][C@]12SC(C)(C)[C@@H](N1C(=O)[C@H]2NC(=O)[C@H](N=C)c1ccccc1)C(O)=O

> <INCHI>
InChI=1S/C17H19N3O4S/c1-17(2)12(16(23)24)20-14(22)11(15(20)25-17)19-13(21)10(18-3)9-7-5-4-6-8-9/h4-8,10-12,15H,3H2,1-2H3,(H,19,21)(H,23,24)/t10-,11-,12+,15-/m1/s1

> <INCHIKEY>
FZECHKJQHUVANE-MCYUEQNJSA-N

> <CAS_REGISTRY_NUMBER>
6489-97-0

> <KEGG_DRUG_ACCESSION>
D07234

> <LINCS_ACCESSION>
LSM-15186

> <WIKIPEDIA_ACCESSION>
Metampicillin

> <PUBMED_CITATION>
12569987; 349485; 4556172; 4574199; 4775221; 5439760; 5564953

$$$$

Marvin  05120914332D          

 26 28  0  0  1  0            999 V2000
   14.4461   -6.8427    0.0000 N   0  0  0  0  0  0  0  0  0  0  0  0
   15.2307   -5.7629    0.0000 S   0  0  0  0  0  0  0  0  0  0  0  0
   16.4301   -6.8427    0.0000 C   0  0  0  0  0  0  0  0  0  0  0  0
   15.7156   -6.4303    0.0000 C   0  0  0  0  0  0  0  0  0  0  0  0
   16.4301   -6.0178    0.0000 C   0  0  0  0  0  0  0  0  0  0  0  0
   15.2307   -7.0977    0.0000 C   0  0  2  0  0  0  0  0  0  0  0  0
   16.2926   -8.0538    0.0000 O   0  0  0  0  0  0  0  0  0  0  0  0
   15.4856   -7.8823    0.0000 C   0  0  0  0  0  0  0  0  0  0  0  0
   14.9336   -8.4954    0.0000 O   0  0  0  0  0  0  0  0  0  0  0  0
   13.6211   -6.0178    0.0000 C   0  0  2  0  0  0  0  0  0  0  0  0
   12.9067   -5.6053    0.0000 N   0  0  0  0  0  0  0  0  0  0  0  0
   12.1922   -6.0178    0.0000 C   0  0  0  0  0  0  0  0  0  0  0  0
   12.1922   -6.8427    0.0000 O   0  0  0  0  0  0  0  0  0  0  0  0
   11.4778   -5.6053    0.0000 C   0  0  0  0  0  0  0  0  0  0  0  0
   13.6211   -6.8427    0.0000 C   0  0  0  0  0  0  0  0  0  0  0  0
   13.0378   -7.4261    0.0000 O   0  0  0  0  0  0  0  0  0  0  0  0
   14.4461   -6.0178    0.0000 C   0  0  2  0  0  0  0  0  0  0  0  0
   14.4461   -5.1928    0.0000 H   0  0  0  0  0  0  0  0  0  0  0  0
   11.4779   -4.7803    0.0000 C   0  0  0  0  0  0  0  0  0  0  0  0
   10.7633   -6.0178    0.0000 O   0  0  0  0  0  0  0  0  0  0  0  0
   10.0489   -5.6052    0.0000 C   0  0  0  0  0  0  0  0  0  0  0  0
   10.0489   -4.7802    0.0000 C   0  0  0  0  0  0  0  0  0  0  0  0
    9.3344   -4.3677    0.0000 C   0  0  0  0  0  0  0  0  0  0  0  0
    9.3344   -6.0177    0.0000 C   0  0  0  0  0  0  0  0  0  0  0  0
    8.6199   -4.7802    0.0000 C   0  0  0  0  0  0  0  0  0  0  0  0
    8.6199   -5.6052    0.0000 C   0  0  0  0  0  0  0  0  0  0  0  0
 17 10  1  0  0  0  0
 10 15  1  0  0  0  0
 15  1  1  0  0  0  0
  1  6  1  0  0  0  0
 17  1  1  0  0  0  0
  2 17  1  0  0  0  0
  2  4  1  0  0  0  0
  6  4  1  0  0  0  0
  4  3  1  0  0  0  0
  4  5  1  0  0  0  0
  6  8  1  6  0  0  0
  8  7  1  0  0  0  0
  8  9  2  0  0  0  0
 10 11  1  1  0  0  0
 11 12  1  0  0  0  0
 12 14  1  0  0  0  0
 12 13  2  0  0  0  0
 15 16  2  0  0  0  0
 17 18  1  6  0  0  0
 14 19  1  0  0  0  0
 14 20  1  0  0  0  0
 20 21  1  0  0  0  0
 21 22  1  0  0  0  0
 23 22  2  0  0  0  0
 24 21  2  0  0  0  0
 25 23  1  0  0  0  0
 26 24  1  0  0  0  0
 26 25  2  0  0  0  0
M  END
> <ID>
CHEBI:52427

> <NAME>
phenethicillin

> <DEFINITION>
A penicillin in which the substituent at position 6 of the penam ring is a 2-phenoxypropanamido group.

> <STAR>
3

> <SYNONYM>
phenoxypropylpenicillin; Pheneticillin; penicillin B; (2S,5R,6R)-3,3-dimethyl-7-oxo-6-[(2-phenoxypropanoyl)amino]-4-thia-1-azabicyclo[3.2.0]heptane-2-carboxylic acid

> <IUPAC_NAME>
6beta-(2-phenoxypropanamido)-2,2-dimethylpenam-3alpha-carboxylic acid

> <INN>
Pheneticillinum; Pheneticilline; Feneticilina

> <FORMULA>
C17H20N2O5S

> <MASS>
364.41600

> <MONOISOTOPIC_MASS>
364.10929

> <CHARGE>
0

> <SMILES>
[H][C@]12SC(C)(C)[C@@H](N1C(=O)[C@H]2NC(=O)C(C)Oc1ccccc1)C(O)=O

> <INCHI>
InChI=1S/C17H20N2O5S/c1-9(24-10-7-5-4-6-8-10)13(20)18-11-14(21)19-12(16(22)23)17(2,3)25-15(11)19/h4-9,11-12,15H,1-3H3,(H,18,20)(H,22,23)/t9?,11-,12+,15-/m1/s1

> <INCHIKEY>
NONJJLVGHLVQQM-JHXYUMNGSA-N

> <BEILSTEIN_REGISTRY_NUMBER>
1091754

> <CAS_REGISTRY_NUMBER>
147-55-7

> <REAXYS_REGISTRY_NUMBER>
1091754

> <CHEMIDPLUS>
147-55-7

> <LINCS_ACCESSION>
LSM-15176

> <WIKIPEDIA_ACCESSION>
Pheneticillin

> <PUBMED_CITATION>
1701026

$$$$

Marvin  05140908132D          

 27 29  0  0  1  0            999 V2000
   14.4461   -6.8427    0.0000 N   0  0  0  0  0  0  0  0  0  0  0  0
   15.2307   -5.7629    0.0000 S   0  0  0  0  0  0  0  0  0  0  0  0
   16.4301   -6.8427    0.0000 C   0  0  0  0  0  0  0  0  0  0  0  0
   15.7156   -6.4303    0.0000 C   0  0  0  0  0  0  0  0  0  0  0  0
   16.4301   -6.0178    0.0000 C   0  0  0  0  0  0  0  0  0  0  0  0
   15.2307   -7.0977    0.0000 C   0  0  2  0  0  0  0  0  0  0  0  0
   16.2926   -8.0538    0.0000 O   0  0  0  0  0  0  0  0  0  0  0  0
   15.4856   -7.8823    0.0000 C   0  0  0  0  0  0  0  0  0  0  0  0
   14.9336   -8.4954    0.0000 O   0  0  0  0  0  0  0  0  0  0  0  0
   13.6211   -6.0178    0.0000 C   0  0  2  0  0  0  0  0  0  0  0  0
   12.9067   -5.6053    0.0000 N   0  0  0  0  0  0  0  0  0  0  0  0
   12.1922   -6.0178    0.0000 C   0  0  0  0  0  0  0  0  0  0  0  0
   12.1922   -6.8427    0.0000 O   0  0  0  0  0  0  0  0  0  0  0  0
   11.4778   -5.6053    0.0000 C   0  0  0  0  0  0  0  0  0  0  0  0
   13.6211   -6.8427    0.0000 C   0  0  0  0  0  0  0  0  0  0  0  0
   13.0378   -7.4261    0.0000 O   0  0  0  0  0  0  0  0  0  0  0  0
   14.4461   -6.0178    0.0000 C   0  0  2  0  0  0  0  0  0  0  0  0
   14.4461   -5.1928    0.0000 H   0  0  0  0  0  0  0  0  0  0  0  0
   11.4778   -4.7803    0.0000 C   0  0  0  0  0  0  0  0  0  0  0  0
   12.1923   -4.3678    0.0000 C   0  0  0  0  0  0  0  0  0  0  0  0
   10.7633   -6.0178    0.0000 O   0  0  0  0  0  0  0  0  0  0  0  0
   10.0489   -5.6053    0.0000 C   0  0  0  0  0  0  0  0  0  0  0  0
    9.3344   -4.3678    0.0000 C   0  0  0  0  0  0  0  0  0  0  0  0
    8.6199   -4.7803    0.0000 C   0  0  0  0  0  0  0  0  0  0  0  0
    8.6199   -5.6053    0.0000 C   0  0  0  0  0  0  0  0  0  0  0  0
    9.3344   -6.0178    0.0000 C   0  0  0  0  0  0  0  0  0  0  0  0
   10.0489   -4.7803    0.0000 C   0  0  0  0  0  0  0  0  0  0  0  0
 17 10  1  0  0  0  0
 10 15  1  0  0  0  0
 15  1  1  0  0  0  0
  1  6  1  0  0  0  0
 17  1  1  0  0  0  0
  2 17  1  0  0  0  0
  2  4  1  0  0  0  0
  6  4  1  0  0  0  0
  4  3  1  0  0  0  0
  4  5  1  0  0  0  0
  6  8  1  6  0  0  0
  8  7  1  0  0  0  0
  8  9  2  0  0  0  0
 10 11  1  1  0  0  0
 11 12  1  0  0  0  0
 12 14  1  0  0  0  0
 12 13  2  0  0  0  0
 15 16  2  0  0  0  0
 17 18  1  6  0  0  0
 14 19  1  0  0  0  0
 19 20  1  0  0  0  0
 14 21  1  0  0  0  0
 21 22  1  0  0  0  0
 26 22  2  0  0  0  0
 22 27  1  0  0  0  0
 23 24  1  0  0  0  0
 24 25  2  0  0  0  0
 25 26  1  0  0  0  0
 23 27  2  0  0  0  0
M  END
> <ID>
CHEBI:52429

> <NAME>
propicillin

> <STAR>
3

> <SYNONYM>
propicilline; (2S,5R,6R)-3,3-dimethyl-7-oxo-6-[(2-phenoxybutanoyl)amino]-4-thia-1-azabicyclo[3.2.0]heptane-2-carboxylic acid

> <IUPAC_NAME>
6beta-(2-phenoxybutanamido)-2,2-dimethylpenam-3alpha-carboxylic acid

> <INN>
propicillinum; propicillin; propicilina

> <FORMULA>
C18H22N2O5S

> <MASS>
378.44300

> <MONOISOTOPIC_MASS>
378.12494

> <CHARGE>
0

> <SMILES>
[H][C@]12SC(C)(C)[C@@H](N1C(=O)[C@H]2NC(=O)C(CC)Oc1ccccc1)C(O)=O

> <INCHI>
InChI=1S/C18H22N2O5S/c1-4-11(25-10-8-6-5-7-9-10)14(21)19-12-15(22)20-13(17(23)24)18(2,3)26-16(12)20/h5-9,11-13,16H,4H2,1-3H3,(H,19,21)(H,23,24)/t11?,12-,13+,16-/m1/s1

> <INCHIKEY>
HOCWPKXKMNXINF-XQERAMJGSA-N

> <BEILSTEIN_REGISTRY_NUMBER>
1092883

> <CAS_REGISTRY_NUMBER>
551-27-9

> <CHEMIDPLUS>
551-27-9

$$$$

Marvin  08280910012D          

 18 19  0  0  0  0            999 V2000
   12.2917   -6.1190    0.0000 C   0  0  0  0  0  0  0  0  0  0  0  0
   12.2917   -6.9440    0.0000 C   0  0  0  0  0  0  0  0  0  0  0  0
   10.8628   -6.9440    0.0000 C   0  0  0  0  0  0  0  0  0  0  0  0
   10.8628   -6.1190    0.0000 C   0  0  0  0  0  0  0  0  0  0  0  0
   11.5772   -7.3565    0.0000 C   0  0  0  0  0  0  0  0  0  0  0  0
   11.5772   -8.1815    0.0000 N   0  0  0  0  0  0  0  0  0  0  0  0
   11.5772   -5.7065    0.0000 C   0  0  0  0  0  0  0  0  0  0  0  0
   10.7522   -4.8815    0.0000 O   0  0  0  0  0  0  0  0  0  0  0  0
   12.4022   -4.8815    0.0000 O   0  0  0  0  0  0  0  0  0  0  0  0
   11.5772   -4.8815    0.0000 S   0  0  0  0  0  0  0  0  0  0  0  0
   11.5772   -4.0565    0.0000 N   0  0  0  0  0  0  0  0  0  0  0  0
   12.2917   -3.6440    0.0000 C   0  0  0  0  0  0  0  0  0  0  0  0
   12.2917   -2.8190    0.0000 C   0  0  0  0  0  0  0  0  0  0  0  0
   13.0763   -3.8990    0.0000 N   0  0  0  0  0  0  0  0  0  0  0  0
   13.5612   -3.2316    0.0000 O   0  0  0  0  0  0  0  0  0  0  0  0
   13.0763   -2.5641    0.0000 C   0  0  0  0  0  0  0  0  0  0  0  0
   13.3314   -1.7795    0.0000 C   0  0  0  0  0  0  0  0  0  0  0  0
   10.8628   -8.5940    0.0000 O   0  0  0  0  0  0  0  0  0  0  0  0
  1  2  1  0  0  0  0
  1  7  2  0  0  0  0
  2  5  2  0  0  0  0
  5  3  1  0  0  0  0
  3  4  2  0  0  0  0
  4  7  1  0  0  0  0
  5  6  1  0  0  0  0
  7 10  1  0  0  0  0
 10  8  2  0  0  0  0
 10  9  2  0  0  0  0
 10 11  1  0  0  0  0
 11 12  1  0  0  0  0
 14 12  2  0  0  0  0
 12 13  1  0  0  0  0
 13 16  2  0  0  0  0
 14 15  1  0  0  0  0
 16 15  1  0  0  0  0
 16 17  1  0  0  0  0
  6 18  1  0  0  0  0
M  END
> <ID>
CHEBI:53016

> <NAME>
sulfamethoxazole hydroxylamine

> <DEFINITION>
A sulfonamide compound having a 4-hydroxylaminophenyl group attached to the sulfur atom and a 1,2-oxazol-3-yl group attached to the nitrogen atom.

> <STAR>
3

> <SYNONYM>
Sulfamethoxazole hydroxylamine; SMX-NHOH; Smx-HA; 4-(Hydroxyamino)-N-(5-methyl-3-isoxazolyl)benzenesulfonamide

> <IUPAC_NAME>
4-(hydroxyamino)-N-(5-methylisoxazol-3-yl)benzenesulfonamide

> <FORMULA>
C10H11N3O4S

> <MASS>
269.27700

> <MONOISOTOPIC_MASS>
269.04703

> <CHARGE>
0

> <SMILES>
Cc1cc(NS(=O)(=O)c2ccc(NO)cc2)no1

> <INCHI>
InChI=1S/C10H11N3O4S/c1-7-6-10(12-17-7)13-18(15,16)9-4-2-8(11-14)3-5-9/h2-6,11,14H,1H3,(H,12,13)

> <INCHIKEY>
MJAMPGKHIZXVFJ-UHFFFAOYSA-N

> <BEILSTEIN_REGISTRY_NUMBER>
6336217

> <CAS_REGISTRY_NUMBER>
114438-33-4

> <REAXYS_REGISTRY_NUMBER>
6336217

> <CHEMIDPLUS>
114438-33-4

> <PUBMED_CITATION>
10506572; 10843725; 11350866; 11448455; 15588915; 16473451; 1686233; 1997005; 1997006; 19997042; 20221587; 7628308; 8062495

$$$$

Marvin  08280911002D          

 18 19  0  0  0  0            999 V2000
   12.2917   -6.1190    0.0000 C   0  0  0  0  0  0  0  0  0  0  0  0
   12.2917   -6.9440    0.0000 C   0  0  0  0  0  0  0  0  0  0  0  0
   10.8629   -6.9440    0.0000 C   0  0  0  0  0  0  0  0  0  0  0  0
   10.8629   -6.1190    0.0000 C   0  0  0  0  0  0  0  0  0  0  0  0
   11.5773   -7.3565    0.0000 C   0  0  0  0  0  0  0  0  0  0  0  0
   11.5773   -8.1815    0.0000 N   0  0  0  0  0  0  0  0  0  0  0  0
   11.5773   -5.7065    0.0000 C   0  0  0  0  0  0  0  0  0  0  0  0
   10.7523   -4.8815    0.0000 O   0  0  0  0  0  0  0  0  0  0  0  0
   12.4023   -4.8815    0.0000 O   0  0  0  0  0  0  0  0  0  0  0  0
   11.5773   -4.8815    0.0000 S   0  0  0  0  0  0  0  0  0  0  0  0
   11.5773   -4.0565    0.0000 N   0  0  0  0  0  0  0  0  0  0  0  0
   12.2917   -3.6440    0.0000 C   0  0  0  0  0  0  0  0  0  0  0  0
   12.2917   -2.8190    0.0000 C   0  0  0  0  0  0  0  0  0  0  0  0
   13.0764   -3.8990    0.0000 N   0  0  0  0  0  0  0  0  0  0  0  0
   13.5613   -3.2316    0.0000 O   0  0  0  0  0  0  0  0  0  0  0  0
   13.0764   -2.5641    0.0000 C   0  0  0  0  0  0  0  0  0  0  0  0
   13.3315   -1.7795    0.0000 C   0  0  0  0  0  0  0  0  0  0  0  0
   10.8628   -8.5940    0.0000 O   0  0  0  0  0  0  0  0  0  0  0  0
  1  2  1  0  0  0  0
  1  7  2  0  0  0  0
  2  5  2  0  0  0  0
  5  3  1  0  0  0  0
  3  4  2  0  0  0  0
  4  7  1  0  0  0  0
  5  6  1  0  0  0  0
  7 10  1  0  0  0  0
 10  8  2  0  0  0  0
 10  9  2  0  0  0  0
 10 11  1  0  0  0  0
 11 12  1  0  0  0  0
 14 12  2  0  0  0  0
 12 13  1  0  0  0  0
 13 16  2  0  0  0  0
 14 15  1  0  0  0  0
 16 15  1  0  0  0  0
 16 17  1  0  0  0  0
  6 18  2  0  0  0  0
M  END
> <ID>
CHEBI:53017

> <NAME>
nitrososulfamethoxazole

> <DEFINITION>
A sulfonamide compound having a 4-nitrosophenyl group attached to the sulfur atom and a 1,2-oxazol-3-yl group attached to the nitrogen atom.

> <STAR>
3

> <SYNONYM>
SMX-NO; nitroso sulphamethoxazole; N-(5-Methyl-3-isoxazolyl)-4-nitrosobenzenesulfonamide; 4-Nitrososulfamethoxazole

> <IUPAC_NAME>
N-(5-methylisoxazol-3-yl)-4-nitrosobenzenesulfonamide

> <FORMULA>
C10H9N3O4S

> <MASS>
267.26100

> <MONOISOTOPIC_MASS>
267.03138

> <CHARGE>
0

> <SMILES>
Cc1cc(NS(=O)(=O)c2ccc(cc2)N=O)no1

> <INCHI>
InChI=1S/C10H9N3O4S/c1-7-6-10(12-17-7)13-18(15,16)9-4-2-8(11-14)3-5-9/h2-6H,1H3,(H,12,13)

> <INCHIKEY>
GHNQGDUYHCZZPT-UHFFFAOYSA-N

> <BEILSTEIN_REGISTRY_NUMBER>
6338308

> <CAS_REGISTRY_NUMBER>
131549-85-4

> <REAXYS_REGISTRY_NUMBER>
6338308

> <CHEMIDPLUS>
131549-85-4

> <PUBMED_CITATION>
10217534; 10843725; 11153075; 11350866; 12181439; 12676884; 15588915; 15664433; 16473451; 17442935; 18334600; 19358516; 20221587; 22342371; 25851465; 9262343

$$$$

Marvin  09020909252D          

 13 13  0  0  0  0            999 V2000
   12.1353   -5.3327    0.0000 C   0  0  0  0  0  0  0  0  0  0  0  0
   12.1353   -6.1577    0.0000 C   0  0  0  0  0  0  0  0  0  0  0  0
   11.4207   -4.9202    0.0000 C   0  0  0  0  0  0  0  0  0  0  0  0
   11.4207   -6.5702    0.0000 C   0  0  0  0  0  0  0  0  0  0  0  0
   10.7063   -5.3327    0.0000 C   0  0  0  0  0  0  0  0  0  0  0  0
   10.7063   -6.1577    0.0000 C   0  0  0  0  0  0  0  0  0  0  0  0
   12.8497   -4.9202    0.0000 N   0  3  0  0  0  0  0  0  0  0  0  0
   13.5642   -5.3327    0.0000 O   0  5  0  0  0  0  0  0  0  0  0  0
   12.8497   -4.0952    0.0000 O   0  0  0  0  0  0  0  0  0  0  0  0
   11.4207   -7.3952    0.0000 N   0  3  0  0  0  0  0  0  0  0  0  0
   10.7063   -7.8077    0.0000 O   0  5  0  0  0  0  0  0  0  0  0  0
   12.1352   -7.8077    0.0000 O   0  0  0  0  0  0  0  0  0  0  0  0
   11.4207   -4.0952    0.0000 F   0  0  0  0  0  0  0  0  0  0  0  0
  2  1  1  0  0  0  0
  3  1  2  0  0  0  0
  4  2  2  0  0  0  0
  5  3  1  0  0  0  0
  6  4  1  0  0  0  0
  6  5  2  0  0  0  0
  8  7  1  0  0  0  0
  9  7  2  0  0  0  0
  1  7  1  0  0  0  0
 11 10  1  0  0  0  0
 12 10  2  0  0  0  0
  4 10  1  0  0  0  0
  3 13  1  0  0  0  0
M  CHG  4   7   1   8  -1  10   1  11  -1
M  END
> <ID>
CHEBI:53049

> <NAME>
1-fluoro-2,4-dinitrobenzene

> <DEFINITION>
The organofluorine compound that is benzene with a fluoro substituent at the 1-position and two nitro substituents in the 2- and 4-positions.

> <STAR>
3

> <SYNONYM>
Fluorodinitrobenzene; Fluoro-2,4-dinitrobenzene; FDNB; DNFB; Dinitrofluorobenzene; DFB; 2,4-DNFB; 2,4-Dnfb; 2,4-Dinitrophenyl fluoride; 2,4-Dinitrofluorobenzene; 2,4-Dinitrobenzenefluoride; 2,4-Dinitrobenzene fluoride; 2,4-Dinitro-1-fluorobenzene; 1-Fluoro-2,4-dinitrobenzene; 1,2,4-Fluorodinitrobenzene

> <IUPAC_NAME>
1-fluoro-2,4-dinitrobenzene

> <FORMULA>
C6H3FN2O4

> <MASS>
186.09740

> <MONOISOTOPIC_MASS>
186.00768

> <CHARGE>
0

> <SMILES>
[O-][N+](=O)c1ccc(F)c(c1)[N+]([O-])=O

> <INCHI>
InChI=1S/C6H3FN2O4/c7-5-2-1-4(8(10)11)3-6(5)9(12)13/h1-3H

> <INCHIKEY>
LOTKRQAVGJMPNV-UHFFFAOYSA-N

> <BEILSTEIN_REGISTRY_NUMBER>
398632

> <CAS_REGISTRY_NUMBER>
70-34-8

> <GMELIN_REGISTRY_NUMBER>
564641

> <REAXYS_REGISTRY_NUMBER>
398632

> <CHEMIDPLUS>
70-34-8

> <METACYC_ACCESSION>
CPD-8983

> <NIST_CHEMISTRY_WEBBOOK>
70-34-8

> <WIKIPEDIA_ACCESSION>
1-Fluoro-2,4-dinitrobenzene

> <PUBMED_CITATION>
10570824; 10868578; 10910205; 11733853; 11739495; 12093520; 14630357; 15307184; 15328335; 15696100; 15801672; 17517538; 17917283; 1854019; 18827366; 18965207; 2100626; 2176869; 23076500; 23190882; 23199096; 23286949; 23395695; 23474456; 23529340; 2420897; 24399719; 2807957; 3121792; 7900773; 7994925; 8248333; 8466279; 9326394

$$$$

Marvin  09020910082D          

 14 15  0  0  0  0            999 V2000
   -0.6187    1.6206    0.0000 C   0  0  0  0  0  0  0  0  0  0  0  0
   -1.3332    1.2080    0.0000 C   0  0  0  0  0  0  0  0  0  0  0  0
   -1.3332    0.3830    0.0000 C   0  0  0  0  0  0  0  0  0  0  0  0
   -0.6187   -0.0295    0.0000 C   0  0  0  0  0  0  0  0  0  0  0  0
    0.0957    0.3830    0.0000 C   0  0  0  0  0  0  0  0  0  0  0  0
    0.0957    1.2080    0.0000 C   0  0  0  0  0  0  0  0  0  0  0  0
   -2.1178    1.4630    0.0000 C   0  0  0  0  0  0  0  0  0  0  0  0
   -2.6027    0.7955    0.0000 O   0  0  0  0  0  0  0  0  0  0  0  0
   -2.1178    0.1281    0.0000 C   0  0  0  0  0  0  0  0  0  0  0  0
    0.8102    1.6205    0.0000 C   0  0  0  0  0  0  0  0  0  0  0  0
    0.8102    2.4455    0.0000 O   0  0  0  0  0  0  0  0  0  0  0  0
    1.5247    1.2080    0.0000 O   0  0  0  0  0  0  0  0  0  0  0  0
   -2.3728    2.2476    0.0000 O   0  0  0  0  0  0  0  0  0  0  0  0
   -2.3728   -0.6565    0.0000 O   0  0  0  0  0  0  0  0  0  0  0  0
  1  2  1  0  0  0  0
  1  6  2  0  0  0  0
  3  4  1  0  0  0  0
  4  5  2  0  0  0  0
  5  6  1  0  0  0  0
  7  2  1  0  0  0  0
  2  3  2  0  0  0  0
  9  3  1  0  0  0  0
  7  8  1  0  0  0  0
  8  9  1  0  0  0  0
  6 10  1  0  0  0  0
 10 11  2  0  0  0  0
 10 12  1  0  0  0  0
  7 13  2  0  0  0  0
  9 14  2  0  0  0  0
M  END
> <ID>
CHEBI:53050

> <NAME>
trimellitic anhydride

> <DEFINITION>
A 2-benzofuran compound having oxo groups at the 1- and 3-positions and a carboxy substituent at the 5-position; the cyclic anhydride formed from the carboxy groups at the 1- and 2-positions of trimellitic acid.

> <STAR>
3

> <SYNONYM>
Trimellitic anhydride; Trimellitic acid cyclic 1,2-anhydride; Trimellitic acid anhydride; Trimellitic acid 1,2-anhydride; Trimellic acid anhydride; Trimellic acid 1,2-anhydride; TMAN; TMA; Benzene-1,2,4-tricarboxylic-1,2-anhydride; Anhydrotrimellitic acid; Anhydrotrimellic acid; 4-Carboxyphthalic anhydride; 1,3-Dioxo-5-phthalancarboxylic acid; 1,3-Dihydro-1,3-dioxo-5-isobenzofurancarboxylic acid; 1,2,4-Benzenetricarboxylic acid, cyclic 1,2-anhydride; 1,2,4-Benzenetricarboxylic acid anhydride; 1,2,4-Benzenetricarboxylic acid 1,2-anhydride

> <IUPAC_NAME>
1,3-dioxo-1,3-dihydro-2-benzofuran-5-carboxylic acid

> <FORMULA>
C9H4O5

> <MASS>
192.12510

> <MONOISOTOPIC_MASS>
192.00587

> <CHARGE>
0

> <SMILES>
OC(=O)c1ccc2C(=O)OC(=O)c2c1

> <INCHI>
InChI=1S/C9H4O5/c10-7(11)4-1-2-5-6(3-4)9(13)14-8(5)12/h1-3H,(H,10,11)

> <INCHIKEY>
SRPWOOOHEPICQU-UHFFFAOYSA-N

> <BEILSTEIN_REGISTRY_NUMBER>
9394

> <CAS_REGISTRY_NUMBER>
552-30-7

> <GMELIN_REGISTRY_NUMBER>
397507

> <REAXYS_REGISTRY_NUMBER>
9394

> <CHEMIDPLUS>
552-30-7

> <NIST_CHEMISTRY_WEBBOOK>
552-30-7

> <PUBMED_CITATION>
11260158; 1447476; 15588915; 16485118; 16796737; 18775882; 20067440; 21691754; 21915071; 23036811; 25042713; 6643875; 6643876; 6775023

$$$$

Marvin  09020911432D          

 16 16  0  0  0  0            999 V2000
   11.9887   -4.9371    0.0000 C   0  0  0  0  0  0  0  0  0  0  0  0
   11.9887   -5.7621    0.0000 C   0  0  0  0  0  0  0  0  0  0  0  0
   11.2742   -4.5246    0.0000 C   0  0  0  0  0  0  0  0  0  0  0  0
   11.2742   -6.1746    0.0000 C   0  0  0  0  0  0  0  0  0  0  0  0
   10.5598   -4.9371    0.0000 C   0  0  0  0  0  0  0  0  0  0  0  0
   10.5598   -5.7621    0.0000 C   0  0  0  0  0  0  0  0  0  0  0  0
   12.7031   -4.5246    0.0000 N   0  3  0  0  0  0  0  0  0  0  0  0
   13.4177   -4.9371    0.0000 O   0  5  0  0  0  0  0  0  0  0  0  0
   12.7031   -3.6996    0.0000 O   0  0  0  0  0  0  0  0  0  0  0  0
   11.2742   -6.9996    0.0000 N   0  3  0  0  0  0  0  0  0  0  0  0
   10.5598   -7.4121    0.0000 O   0  5  0  0  0  0  0  0  0  0  0  0
   11.9886   -7.4121    0.0000 O   0  0  0  0  0  0  0  0  0  0  0  0
   11.2742   -3.6996    0.0000 Cl  0  0  0  0  0  0  0  0  0  0  0  0
    9.8453   -4.5246    0.0000 N   0  3  0  0  0  0  0  0  0  0  0  0
    9.8452   -3.6996    0.0000 O   0  5  0  0  0  0  0  0  0  0  0  0
    9.1308   -4.9371    0.0000 O   0  0  0  0  0  0  0  0  0  0  0  0
  2  1  1  0  0  0  0
  3  1  2  0  0  0  0
  4  2  2  0  0  0  0
  5  3  1  0  0  0  0
  6  4  1  0  0  0  0
  6  5  2  0  0  0  0
  8  7  1  0  0  0  0
  9  7  2  0  0  0  0
  1  7  1  0  0  0  0
 11 10  1  0  0  0  0
 12 10  2  0  0  0  0
  4 10  1  0  0  0  0
  3 13  1  0  0  0  0
 15 14  1  0  0  0  0
 16 14  2  0  0  0  0
  5 14  1  0  0  0  0
M  CHG  6   7   1   8  -1  10   1  11  -1  14   1  15  -1
M  END
> <ID>
CHEBI:53053

> <NAME>
1-chloro-2,4,6-trinitrobenzene

> <DEFINITION>
The C-nitro compound that is chlorobenzene with three nitro substituents in the 2-, 4- and 6-positions.

> <STAR>
3

> <SYNONYM>
Trinitrochlorobenzene; TNCB; Tncb; Picryl chloride; 2-Chloro-1,3,5-trinitrobenzene; 2,4,6-Trinitrochlorobenzene; 2,4,6-Trinitro-1-chlorobenzene; 1-Chloro-2,4,6-trinitrobenzene

> <IUPAC_NAME>
2-chloro-1,3,5-trinitrobenzene

> <FORMULA>
C6H2ClN3O6

> <MASS>
247.55000

> <MONOISOTOPIC_MASS>
246.96321

> <CHARGE>
0

> <SMILES>
[O-][N+](=O)c1cc(c(Cl)c(c1)[N+]([O-])=O)[N+]([O-])=O

> <INCHI>
InChI=1S/C6H2ClN3O6/c7-6-4(9(13)14)1-3(8(11)12)2-5(6)10(15)16/h1-2H

> <INCHIKEY>
HJRJRUMKQCMYDL-UHFFFAOYSA-N

> <BEILSTEIN_REGISTRY_NUMBER>
1588666

> <CAS_REGISTRY_NUMBER>
88-88-0

> <GMELIN_REGISTRY_NUMBER>
241377

> <REAXYS_REGISTRY_NUMBER>
1588666

> <CHEMIDPLUS>
88-88-0

> <NIST_CHEMISTRY_WEBBOOK>
88-88-0

> <WIKIPEDIA_ACCESSION>
Picryl_chloride

> <PUBMED_CITATION>
11168631; 12631250; 12809997; 14112263; 15696100; 16675348; 19870667; 21664903; 21986191; 22289731; 22834538; 23106683; 23149290; 23661987; 3918942; 7843258; 9326394

$$$$

Marvin  09040909372D          

 16 18  0  0  0  0            999 V2000
   -1.9300    0.1547    0.0000 C   0  0  0  0  0  0  0  0  0  0  0  0
   -2.3425   -0.5598    0.0000 C   0  0  0  0  0  0  0  0  0  0  0  0
   -1.5175   -0.5598    0.0000 C   0  0  0  0  0  0  0  0  0  0  0  0
   -1.9300    0.9797    0.0000 O   0  0  0  0  0  0  0  0  0  0  0  0
   -3.7714   -0.5598    0.0000 C   0  0  0  0  0  0  0  0  0  0  0  0
   -4.4859   -0.9723    0.0000 C   0  0  0  0  0  0  0  0  0  0  0  0
   -4.4859   -1.7973    0.0000 C   0  0  0  0  0  0  0  0  0  0  0  0
   -3.7714   -2.2098    0.0000 C   0  0  0  0  0  0  0  0  0  0  0  0
   -3.0570   -1.7973    0.0000 C   0  0  0  0  0  0  0  0  0  0  0  0
   -3.0570   -0.9723    0.0000 C   0  0  0  0  0  0  0  0  0  0  0  0
   -0.0886   -0.5598    0.0000 C   0  0  0  0  0  0  0  0  0  0  0  0
   -0.8031   -0.9723    0.0000 C   0  0  0  0  0  0  0  0  0  0  0  0
   -0.8031   -1.7973    0.0000 C   0  0  0  0  0  0  0  0  0  0  0  0
   -0.0886   -2.2098    0.0000 C   0  0  0  0  0  0  0  0  0  0  0  0
    0.6259   -1.7973    0.0000 C   0  0  0  0  0  0  0  0  0  0  0  0
    0.6259   -0.9723    0.0000 C   0  0  0  0  0  0  0  0  0  0  0  0
  1  2  1  0  0  0  0
  3  1  1  0  0  0  0
  2  3  2  0  0  0  0
  1  4  2  0  0  0  0
  5  6  2  0  0  0  0
  5 10  1  0  0  0  0
  6  7  1  0  0  0  0
  7  8  2  0  0  0  0
  8  9  1  0  0  0  0
  9 10  2  0  0  0  0
 11 12  2  0  0  0  0
 11 16  1  0  0  0  0
 12 13  1  0  0  0  0
 13 14  2  0  0  0  0
 14 15  1  0  0  0  0
 15 16  2  0  0  0  0
 10  2  1  0  0  0  0
 12  3  1  0  0  0  0
M  END
> <ID>
CHEBI:53074

> <NAME>
diphenylcyclopropenone

> <DEFINITION>
A cyclopropenone compound having phenyl substituents at the 2- and 3-positions.

> <STAR>
3

> <SYNONYM>
DPCP; DPC; Diphenylcyclopropenone; Diphencyprone; 2,3-Diphenylcyclopropenone; 2,3-Diphenylcycloprop-2-en-1-one

> <IUPAC_NAME>
2,3-diphenylcycloprop-2-en-1-one

> <FORMULA>
C15H10O

> <MASS>
206.23930

> <MONOISOTOPIC_MASS>
206.07316

> <CHARGE>
0

> <SMILES>
O=c1c(-c2ccccc2)c1-c1ccccc1

> <INCHI>
InChI=1S/C15H10O/c16-15-13(11-7-3-1-4-8-11)14(15)12-9-5-2-6-10-12/h1-10H

> <INCHIKEY>
HCIBTBXNLVOFER-UHFFFAOYSA-N

> <BEILSTEIN_REGISTRY_NUMBER>
608049

> <CAS_REGISTRY_NUMBER>
886-38-4

> <GMELIN_REGISTRY_NUMBER>
409391

> <REAXYS_REGISTRY_NUMBER>
608049

> <CHEMIDPLUS>
886-38-4

> <LINCS_ACCESSION>
LSM-5625

> <NIST_CHEMISTRY_WEBBOOK>
886-38-4

> <PUBMED_CITATION>
15009707; 24307611; 24308833; 24385090; 24421563; 24751728

$$$$

Marvin  09110914412D          

 24 26  0  0  0  0            999 V2000
   -1.1196    1.3259    0.0000 C   0  0  0  0  0  0  0  0  0  0  0  0
   -1.8341    0.9134    0.0000 C   0  0  0  0  0  0  0  0  0  0  0  0
   -1.8341    0.0884    0.0000 C   0  0  0  0  0  0  0  0  0  0  0  0
   -1.1196   -0.3241    0.0000 C   0  0  0  0  0  0  0  0  0  0  0  0
   -0.4052    0.0884    0.0000 C   0  0  0  0  0  0  0  0  0  0  0  0
   -0.4052    0.9134    0.0000 C   0  0  0  0  0  0  0  0  0  0  0  0
    0.3093   -0.3241    0.0000 N   0  0  0  0  0  0  0  0  0  0  0  0
   -2.5486    1.3259    0.0000 N   0  0  0  0  0  0  0  0  0  0  0  0
    1.0238    0.0884    0.0000 C   0  0  0  0  0  0  0  0  0  0  0  0
   -3.2631    0.9134    0.0000 C   0  0  0  0  0  0  0  0  0  0  0  0
   -3.9775    1.3259    0.0000 C   0  0  0  0  0  0  0  0  0  0  0  0
   -4.6920    0.9134    0.0000 C   0  0  0  0  0  0  0  0  0  0  0  0
   -4.6920    0.0884    0.0000 C   0  0  0  0  0  0  0  0  0  0  0  0
   -3.9775   -0.3241    0.0000 C   0  0  0  0  0  0  0  0  0  0  0  0
   -3.2631    0.0884    0.0000 C   0  0  0  0  0  0  0  0  0  0  0  0
    1.7382    1.3259    0.0000 C   0  0  0  0  0  0  0  0  0  0  0  0
    1.0238    0.9134    0.0000 C   0  0  0  0  0  0  0  0  0  0  0  0
    1.7382   -0.3241    0.0000 C   0  0  0  0  0  0  0  0  0  0  0  0
    2.4527    0.0884    0.0000 C   0  0  0  0  0  0  0  0  0  0  0  0
    2.4527    0.9134    0.0000 C   0  0  0  0  0  0  0  0  0  0  0  0
   -1.1196    2.1509    0.0000 N   0  0  0  0  0  0  0  0  0  0  0  0
   -1.1196   -1.1491    0.0000 N   0  0  0  0  0  0  0  0  0  0  0  0
    3.1672    1.3259    0.0000 N   0  0  0  0  0  0  0  0  0  0  0  0
   -5.4065   -0.3241    0.0000 N   0  0  0  0  0  0  0  0  0  0  0  0
  1  2  1  0  0  0  0
  1  6  2  0  0  0  0
  2  3  1  0  0  0  0
  3  4  2  0  0  0  0
  4  5  1  0  0  0  0
  5  6  1  0  0  0  0
  5  7  2  0  0  0  0
  2  8  2  0  0  0  0
  7  9  1  0  0  0  0
  8 10  1  0  0  0  0
 15 10  2  0  0  0  0
 11 10  1  0  0  0  0
 11 12  2  0  0  0  0
 12 13  1  0  0  0  0
 13 14  2  0  0  0  0
 14 15  1  0  0  0  0
 17  9  2  0  0  0  0
  9 18  1  0  0  0  0
 16 17  1  0  0  0  0
 16 20  2  0  0  0  0
 18 19  2  0  0  0  0
 19 20  1  0  0  0  0
  1 21  1  0  0  0  0
  4 22  1  0  0  0  0
 20 23  1  0  0  0  0
 13 24  1  0  0  0  0
M  END
> <ID>
CHEBI:53109

> <NAME>
Bandrowski's base

> <DEFINITION>
A quinone imine having amino substituents in the 2- and 5-positions and 4-aminophenyl substituents on both of the imine nitrogens. It is a trimer formed from 1,4-phenylenediamine.

> <STAR>
3

> <SYNONYM>
BB; 3,6-bis[(p-aminophenyl)imino ]cyclohexa-1,4-diene-1,4-diamine; 3,6-bis((p-aminophenyl)imino)-1,4-cyclohexadiene-1,4-diamine

> <IUPAC_NAME>
N(1),N(1)'-(2,5-diaminocyclohexa-2,5-diene-1,4-diylidene)dibenzene-1,4-diamine

> <FORMULA>
C18H18N6

> <MASS>
318.37570

> <MONOISOTOPIC_MASS>
318.15929

> <CHARGE>
0

> <SMILES>
Nc1ccc(cc1)\N=C1/C=C(N)\C(\C=C/1N)=N\c1ccc(N)cc1

> <INCHI>
InChI=1S/C18H18N6/c19-11-1-5-13(6-2-11)23-17-9-16(22)18(10-15(17)21)24-14-7-3-12(20)4-8-14/h1-10H,19-22H2/b23-17+,24-18+

> <INCHIKEY>
KKJZEUXMWDXPAU-GJHDBBOXSA-N

> <BEILSTEIN_REGISTRY_NUMBER>
3038033

> <CAS_REGISTRY_NUMBER>
20048-27-5

> <REAXYS_REGISTRY_NUMBER>
3038033

> <CHEMIDPLUS>
20048-27-5

> <PUBMED_CITATION>
10771133; 11981821; 12160146; 17014438; 17914451; 18844695; 19136049; 19657353; 20180511; 2195336; 22592985; 22592989; 22927343; 8735869; 9540973

$$$$

Marvin  10050913132D          

 19 20  0  0  0  0            999 V2000
   15.2969  -14.6163    0.0000 C   0  0  0  0  0  0  0  0  0  0  0  0
   16.0114  -15.0288    0.0000 C   0  0  0  0  0  0  0  0  0  0  0  0
   16.7259  -14.6163    0.0000 C   0  0  0  0  0  0  0  0  0  0  0  0
   16.7259  -13.7913    0.0000 C   0  0  0  0  0  0  0  0  0  0  0  0
   16.0114  -13.3788    0.0000 C   0  0  0  0  0  0  0  0  0  0  0  0
   15.2969  -13.7913    0.0000 C   0  0  0  0  0  0  0  0  0  0  0  0
   17.4404  -15.0288    0.0000 N   0  0  0  0  0  0  0  0  0  0  0  0
   18.1549  -14.6164    0.0000 C   0  0  0  0  0  0  0  0  0  0  0  0
   18.8693  -14.2038    0.0000 O   0  0  0  0  0  0  0  0  0  0  0  0
   14.5824  -13.3788    0.0000 C   0  0  0  0  0  0  0  0  0  0  0  0
   13.8680  -13.7913    0.0000 C   0  0  0  0  0  0  0  0  0  0  0  0
   13.1535  -13.3788    0.0000 C   0  0  0  0  0  0  0  0  0  0  0  0
   12.4390  -13.7913    0.0000 C   0  0  0  0  0  0  0  0  0  0  0  0
   12.4390  -14.6163    0.0000 C   0  0  0  0  0  0  0  0  0  0  0  0
   13.1535  -15.0288    0.0000 C   0  0  0  0  0  0  0  0  0  0  0  0
   13.8680  -14.6163    0.0000 C   0  0  0  0  0  0  0  0  0  0  0  0
   11.7246  -15.0288    0.0000 N   0  0  0  0  0  0  0  0  0  0  0  0
   11.7246  -15.8538    0.0000 C   0  0  0  0  0  0  0  0  0  0  0  0
   11.7246  -16.6788    0.0000 O   0  0  0  0  0  0  0  0  0  0  0  0
  2  3  1  0  0  0  0
  6 10  1  0  0  0  0
  3  4  1  0  0  0  0
 10 11  1  0  0  0  0
 11 12  1  0  0  0  0
  4  5  1  0  0  0  0
  5  6  1  0  0  0  0
  3  7  1  0  0  0  0
  1  2  1  0  0  0  0
 11 16  1  0  0  0  0
 12 13  1  0  0  0  0
 13 14  1  0  0  0  0
 14 15  1  0  0  0  0
 15 16  1  0  0  0  0
  7  8  2  0  0  0  0
 14 17  1  0  0  0  0
  1  6  1  0  0  0  0
 17 18  2  0  0  0  0
  8  9  2  0  0  0  0
 18 19  2  0  0  0  0
M  END
> <ID>
CHEBI:53216

> <NAME>
dicyclohexylmethane-4,4'-diisocyanate

> <DEFINITION>
A diisocyanate consisting of dicyclohexylmethane with two isocyanate groups at the 4- and 4'-positions.

> <STAR>
3

> <SYNONYM>
Methylene bis-(4-cyclohexylisocyanate); Methylene bis(4-cyclohexylisocyanate); Isocyanic acid, methylenedi-4,1-cyclohexylene ester; Hylene W; Hydrogenated MDI; HMDI; Dicyclohexylmethane-4,4'-di-isocyanate; dicyclohexylmethane 4,4'-diisocyanate; Bis(4-isocyanatocyclohexyl)methane; 4,4'-Methylenedi(cyclohexyl isocyanate); 4,4'-Diisocyanatodicyclohexylmethane

> <IUPAC_NAME>
1,1'-methylenebis(4-isocyanatocyclohexane)

> <FORMULA>
C15H22N2O2

> <MASS>
262.34740

> <MONOISOTOPIC_MASS>
262.16813

> <CHARGE>
0

> <SMILES>
O=C=NC1CCC(CC1)CC1CCC(CC1)N=C=O

> <INCHI>
InChI=1S/C15H22N2O2/c18-10-16-14-5-1-12(2-6-14)9-13-3-7-15(8-4-13)17-11-19/h12-15H,1-9H2

> <INCHIKEY>
KORSJDCBLAPZEQ-UHFFFAOYSA-N

> <BEILSTEIN_REGISTRY_NUMBER>
2217800

> <CAS_REGISTRY_NUMBER>
5124-30-1

> <REAXYS_REGISTRY_NUMBER>
2217800

> <CHEMIDPLUS>
5124-30-1

> <NIST_CHEMISTRY_WEBBOOK>
5124-30-1

> <PUBMED_CITATION>
11603590; 1447476; 14531868; 17896759; 19804698; 20004749; 20334402; 20851382; 2488962; 6740674; 6821040; 8960156

$$$$

Marvin  10050914002D          

 19 20  0  0  0  0            999 V2000
   19.4240  -10.7824    0.0000 C   0  0  0  0  0  0  0  0  0  0  0  0
   12.9937  -12.0199    0.0000 C   0  0  0  0  0  0  0  0  0  0  0  0
   18.7095  -11.1949    0.0000 N   0  0  0  0  0  0  0  0  0  0  0  0
   12.9937  -11.1949    0.0000 N   0  0  0  0  0  0  0  0  0  0  0  0
   20.1384  -10.3699    0.0000 O   0  0  0  0  0  0  0  0  0  0  0  0
   12.9937  -12.8450    0.0000 O   0  0  0  0  0  0  0  0  0  0  0  0
   17.9950  -10.7824    0.0000 C   0  0  0  0  0  0  0  0  0  0  0  0
   13.7082  -10.7824    0.0000 C   0  0  0  0  0  0  0  0  0  0  0  0
   16.5660   -9.9575    0.0000 C   0  0  0  0  0  0  0  0  0  0  0  0
   15.1371   -9.9575    0.0000 C   0  0  0  0  0  0  0  0  0  0  0  0
   15.8516   -9.5450    0.0000 C   0  0  0  0  0  0  0  0  0  0  0  0
   17.9950   -9.9575    0.0000 C   0  0  0  0  0  0  0  0  0  0  0  0
   17.2805  -11.1949    0.0000 C   0  0  0  0  0  0  0  0  0  0  0  0
   14.4226  -11.1949    0.0000 C   0  0  0  0  0  0  0  0  0  0  0  0
   13.7082   -9.9574    0.0000 C   0  0  0  0  0  0  0  0  0  0  0  0
   17.2805   -9.5450    0.0000 C   0  0  0  0  0  0  0  0  0  0  0  0
   16.5660  -10.7825    0.0000 C   0  0  0  0  0  0  0  0  0  0  0  0
   15.1371  -10.7825    0.0000 C   0  0  0  0  0  0  0  0  0  0  0  0
   14.4226   -9.5450    0.0000 C   0  0  0  0  0  0  0  0  0  0  0  0
  2  4  2  0  0  0  0
  3  1  2  0  0  0  0
  4  8  1  0  0  0  0
  5  1  2  0  0  0  0
  6  2  2  0  0  0  0
  7  3  1  0  0  0  0
  8 15  1  0  0  0  0
  9 17  2  0  0  0  0
 10 11  1  0  0  0  0
 11  9  1  0  0  0  0
 12  7  1  0  0  0  0
 13  7  2  0  0  0  0
 14 18  1  0  0  0  0
 15 19  2  0  0  0  0
 16 12  2  0  0  0  0
 17 13  1  0  0  0  0
 18 10  2  0  0  0  0
 19 10  1  0  0  0  0
  9 16  1  0  0  0  0
 14  8  2  0  0  0  0
M  END
> <ID>
CHEBI:53218

> <NAME>
diphenylmethane-4,4'-diisocyanate

> <DEFINITION>
A diisocyanate consisting of diphenylmethane with two isocyanate groups at the 4- and 4'-positions.

> <STAR>
3

> <SYNONYM>
para,para'-Methylenebis(phenyl isocyanate); para,para'-Diphenylmethane diisocyanate; p,p'-Methylenebis(phenyl isocyanate); p,p'-Diphenylmethane diisocyanate; Methylenedi-para-phenylene diisocyanate; Methylenedi-p-phenylene diisocyanate; Methylenebisphenyl diisocyanate; Methylenebis(para-phenylene isocyanate); Methylenebis(para-phenyl isocyanate); Methylenebis(p-phenylene isocyanate); Methylenebis(p-phenyl isocyanate); Methylenebis(4-phenylene isocyanate); Methylenebis(4-phenyl isocyanate); Methylenebis(4-isocyanatobenzene); Methylene diphenyl diisocyanate; Methylene di-p-phenylene isocyanate; Methylene bisphenyl isocyanate; Methylbisphenyl isocyanate; MDR; MDI; Diphenylmethyl diisocyanate; Diphenylmethane-4,4'-diisocyanate; Diphenylmethane diisocyanate; Diphenylmethan-4,4'-diisocyanat; Diphenyl methane diisocyanate; Bis(para-isocyanatophenyl)methane; Bis(p-isocyanatophenyl)methane; Bis(4-isocyanatophenyl)methane; Bis(1,4-isocyanatophenyl)methane; 4-4'-Diisocyanate de diphenylmethane; 4,4'-Methylenediphenylene isocyanate; 4,4'-Methylenediphenylene diisocyanate; 4,4'-Methylenediphenyl isocyanate; 4,4'-Methylenediphenyl diisocyanate; 4,4'-Methylenedi-p-phenylene diisocyanate; 4,4'-Methylenedi(phenyl isocyanate); 4,4'-Methylenebis(phenyl isocyanate); 4,4'-methylene diphenyl diisocyanate; 4,4'-Diphenylmethane diisocyanate; 4,4'-Diisocyanatodiphenylmethane; 1,1'-Methylenebis(4-isocyanatobenzene)

> <IUPAC_NAME>
1,1'-methylenebis(4-isocyanatobenzene)

> <FORMULA>
C15H10N2O2

> <MASS>
250.25210

> <MONOISOTOPIC_MASS>
250.07423

> <CHARGE>
0

> <SMILES>
O=C=Nc1ccc(Cc2ccc(cc2)N=C=O)cc1

> <INCHI>
InChI=1S/C15H10N2O2/c18-10-16-14-5-1-12(2-6-14)9-13-3-7-15(8-4-13)17-11-19/h1-8H,9H2

> <INCHIKEY>
UPMLOUAZCHDJJD-UHFFFAOYSA-N

> <BEILSTEIN_REGISTRY_NUMBER>
797662

> <CAS_REGISTRY_NUMBER>
101-68-8

> <GMELIN_REGISTRY_NUMBER>
166464

> <REAXYS_REGISTRY_NUMBER>
797662

> <CHEMIDPLUS>
101-68-8

> <KEGG_COMPOUND_ACCESSION>
C19453

> <NIST_CHEMISTRY_WEBBOOK>
101-68-8

> <WIKIPEDIA_ACCESSION>
Diphenylmethane_diisocyanate

> <PUBMED_CITATION>
11927838; 1447476; 14531868; 17042142; 17336832; 18352975; 18418755; 18484168; 18787742; 19014769; 19191163; 19732394; 19757291; 20165612; 20933064; 21414210; 21878336; 21987383; 24572447; 26337647; 26690039; 26954368; 6296214; 6821040; 8093967; 8711735; 8960156

$$$$

Marvin  10060916112D          

 20 21  0  0  0  0            999 V2000
   13.9674  -16.4754    0.0000 C   0  0  0  0  0  0  0  0  0  0  0  0
   14.6819  -16.0629    0.0000 C   0  0  0  0  0  0  0  0  0  0  0  0
   15.3964  -16.4754    0.0000 C   0  0  0  0  0  0  0  0  0  0  0  0
   16.1108  -16.0629    0.0000 C   0  0  0  0  0  0  0  0  0  0  0  0
   16.1108  -15.2379    0.0000 C   0  0  0  0  0  0  0  0  0  0  0  0
   15.3964  -14.8254    0.0000 C   0  0  0  0  0  0  0  0  0  0  0  0
   14.6819  -15.2379    0.0000 C   0  0  0  0  0  0  0  0  0  0  0  0
   13.9674  -17.3004    0.0000 O   0  0  0  0  0  0  0  0  0  0  0  0
   13.2529  -16.0629    0.0000 O   0  0  0  0  0  0  0  0  0  0  0  0
   16.8253  -14.8254    0.0000 N   0  0  0  0  0  0  0  0  0  0  0  0
   17.5398  -15.2379    0.0000 S   0  0  0  0  0  0  0  0  0  0  0  0
   17.9523  -14.5234    0.0000 O   0  0  0  0  0  0  0  0  0  0  0  0
   17.1273  -15.9524    0.0000 O   0  0  0  0  0  0  0  0  0  0  0  0
   18.2542  -15.6504    0.0000 C   0  0  0  0  0  0  0  0  0  0  0  0
   18.9687  -15.2379    0.0000 C   0  0  0  0  0  0  0  0  0  0  0  0
   19.6832  -15.6504    0.0000 C   0  0  0  0  0  0  0  0  0  0  0  0
   19.6832  -16.4754    0.0000 C   0  0  0  0  0  0  0  0  0  0  0  0
   20.3977  -16.8879    0.0000 N   0  0  0  0  0  0  0  0  0  0  0  0
   18.9687  -16.8879    0.0000 C   0  0  0  0  0  0  0  0  0  0  0  0
   18.2542  -16.4754    0.0000 C   0  0  0  0  0  0  0  0  0  0  0  0
  1  2  1  0  0  0  0
  2  3  1  0  0  0  0
  3  4  2  0  0  0  0
  4  5  1  0  0  0  0
  5  6  2  0  0  0  0
  6  7  1  0  0  0  0
  2  7  2  0  0  0  0
  1  8  2  0  0  0  0
  1  9  1  0  0  0  0
 10 11  1  0  0  0  0
 11 12  2  0  0  0  0
 11 13  2  0  0  0  0
 11 14  1  0  0  0  0
 14 15  1  0  0  0  0
 15 16  2  0  0  0  0
 16 17  1  0  0  0  0
 17 18  1  0  0  0  0
 17 19  2  0  0  0  0
 19 20  1  0  0  0  0
 14 20  2  0  0  0  0
  5 10  1  0  0  0  0
M  END
> <ID>
CHEBI:53237

> <NAME>
4-sulfanilamidobenzoic acid

> <DEFINITION>
A sulfonamide that is sulfanilamide substituted at the sulfonamide nitrogen by a 4-carboxyphenyl group.

> <STAR>
3

> <SYNONYM>
SABA; p-sulfanilamidobenzoic acid; 4-sulphanilamidobenzoic acid; 4-sulphanilamide benzoic acid; 4-SABA; 4-(((4-aminophenyl)sulfonyl)amino)benzoic acid

> <IUPAC_NAME>
4-{[(4-aminophenyl)sulfonyl]amino}benzoic acid

> <FORMULA>
C13H12N2O4S

> <MASS>
292.31000

> <MONOISOTOPIC_MASS>
292.05178

> <CHARGE>
0

> <SMILES>
Nc1ccc(cc1)S(=O)(=O)Nc1ccc(cc1)C(O)=O

> <INCHI>
InChI=1S/C13H12N2O4S/c14-10-3-7-12(8-4-10)20(18,19)15-11-5-1-9(2-6-11)13(16)17/h1-8,15H,14H2,(H,16,17)

> <INCHIKEY>
WNLOVPITXSWKEZ-UHFFFAOYSA-N

> <BEILSTEIN_REGISTRY_NUMBER>
2664013

> <CAS_REGISTRY_NUMBER>
6336-70-5

> <REAXYS_REGISTRY_NUMBER>
2664013

> <CHEMIDPLUS>
6336-70-5

> <PUBMED_CITATION>
2420897; 313909; 89094; 91585

$$$$

Marvin  10150912022D          

 20 23  0  0  0  0            999 V2000
   19.4392  -16.0675    0.0000 S   0  0  0  0  0  0  0  0  0  0  0  0
   19.8517  -16.7819    0.0000 S   0  0  0  0  0  0  0  0  0  0  0  0
   18.1293  -16.7349    0.0000 S   0  0  0  0  0  0  0  0  0  0  0  0
   18.6142  -16.0675    0.0000 C   0  0  0  0  0  0  0  0  0  0  0  0
   18.1293  -15.4000    0.0000 N   0  0  0  0  0  0  0  0  0  0  0  0
   17.3447  -15.6550    0.0000 C   0  0  0  0  0  0  0  0  0  0  0  0
   17.3447  -16.4800    0.0000 C   0  0  0  0  0  0  0  0  0  0  0  0
   16.6302  -15.2425    0.0000 C   0  0  0  0  0  0  0  0  0  0  0  0
   15.9158  -15.6550    0.0000 C   0  0  0  0  0  0  0  0  0  0  0  0
   15.9158  -16.4800    0.0000 C   0  0  0  0  0  0  0  0  0  0  0  0
   16.6302  -16.8925    0.0000 C   0  0  0  0  0  0  0  0  0  0  0  0
   21.1617  -16.1145    0.0000 S   0  0  0  0  0  0  0  0  0  0  0  0
   20.6768  -16.7819    0.0000 C   0  0  0  0  0  0  0  0  0  0  0  0
   21.1617  -17.4494    0.0000 N   0  0  0  0  0  0  0  0  0  0  0  0
   21.9463  -17.1944    0.0000 C   0  0  0  0  0  0  0  0  0  0  0  0
   21.9463  -16.3694    0.0000 C   0  0  0  0  0  0  0  0  0  0  0  0
   22.6608  -17.6069    0.0000 C   0  0  0  0  0  0  0  0  0  0  0  0
   23.3752  -17.1944    0.0000 C   0  0  0  0  0  0  0  0  0  0  0  0
   23.3752  -16.3694    0.0000 C   0  0  0  0  0  0  0  0  0  0  0  0
   22.6608  -15.9569    0.0000 C   0  0  0  0  0  0  0  0  0  0  0  0
  1  2  1  0  0  0  0
  3  4  1  0  0  0  0
  4  5  2  0  0  0  0
  5  6  1  0  0  0  0
  6  7  1  0  0  0  0
  3  7  1  0  0  0  0
  8  9  1  0  0  0  0
  9 10  2  0  0  0  0
 10 11  1  0  0  0  0
  7 11  2  0  0  0  0
  6  8  2  0  0  0  0
  1  4  1  0  0  0  0
 12 13  1  0  0  0  0
 13 14  2  0  0  0  0
 14 15  1  0  0  0  0
 15 16  1  0  0  0  0
 12 16  1  0  0  0  0
 17 18  1  0  0  0  0
 18 19  2  0  0  0  0
 19 20  1  0  0  0  0
 16 20  2  0  0  0  0
 15 17  2  0  0  0  0
  2 13  1  0  0  0  0
M  END
> <ID>
CHEBI:53239

> <NAME>
dibenzothiazol-2-yl disulfide

> <DEFINITION>
An organic disulfide resulting from the formal oxidative coupling of the thiol groups of two molecules of 1,3-benzothiazole-2-thiol. It is used as an accelerator in the rubber industry.

> <STAR>
3

> <SYNONYM>
Thiofide; Dibenzoylthiazyl disulfide; Dibenzothiazyl disulfide; Dibenzothiazolyl disulphide; Dibenzothiazolyl disulfide; di(1,3-benzothiazol-2-yl) disulfide; BTS-SBT; Bis(benzothiazolyl) disulfide; Bis(2-benzothiazyl) disulfide; Bis(2-benzothiazolyl) disulfide; benzothiazyl disulfide; benzothiazolyl disulfide; Benzothiazole disulfide; 2-Mercaptobenzothiazole disulfide; 2,2'-Dibenzothiazyl disulfide; 2,2'-Bis(benzothiazolyl) disulfide; 2,2'-Benzothiazyl disulfide

> <IUPAC_NAME>
2,2'-dithiobis(1,3-benzothiazole)

> <FORMULA>
C14H8N2S4

> <MASS>
332.48700

> <MONOISOTOPIC_MASS>
331.95703

> <CHARGE>
0

> <SMILES>
S(Sc1nc2ccccc2s1)c1nc2ccccc2s1

> <INCHI>
InChI=1S/C14H8N2S4/c1-3-7-11-9(5-1)15-13(17-11)19-20-14-16-10-6-2-4-8-12(10)18-14/h1-8H

> <INCHIKEY>
AFZSMODLJJCVPP-UHFFFAOYSA-N

> <BEILSTEIN_REGISTRY_NUMBER>
285796

> <CAS_REGISTRY_NUMBER>
120-78-5

> <REAXYS_REGISTRY_NUMBER>
285796

> <CHEMIDPLUS>
120-78-5

> <NIST_CHEMISTRY_WEBBOOK>
120-78-5

> <PUBMED_CITATION>
15023086; 18568896

$$$$

Marvin  10200912182D          

 14 13  0  0  0  0            999 V2000
    6.5957   -4.9913    0.0000 C   0  0  0  0  0  0  0  0  0  0  0  0
    7.3102   -4.5788    0.0000 C   0  0  0  0  0  0  0  0  0  0  0  0
    8.0247   -4.9913    0.0000 C   0  0  0  0  0  0  0  0  0  0  0  0
    7.3102   -3.7538    0.0000 C   0  0  0  0  0  0  0  0  0  0  0  0
    8.7392   -4.5788    0.0000 O   0  0  0  0  0  0  0  0  0  0  0  0
    8.0247   -5.8163    0.0000 O   0  0  0  0  0  0  0  0  0  0  0  0
    9.4537   -4.9913    0.0000 C   0  0  0  0  0  0  0  0  0  0  0  0
   10.1681   -4.5788    0.0000 C   0  0  0  0  0  0  0  0  0  0  0  0
   10.8826   -4.9913    0.0000 O   0  0  0  0  0  0  0  0  0  0  0  0
   11.5971   -4.5788    0.0000 C   0  0  0  0  0  0  0  0  0  0  0  0
   12.3116   -4.9913    0.0000 C   0  0  0  0  0  0  0  0  0  0  0  0
   11.5971   -3.7538    0.0000 O   0  0  0  0  0  0  0  0  0  0  0  0
   13.0260   -4.5788    0.0000 C   0  0  0  0  0  0  0  0  0  0  0  0
   12.3116   -5.8163    0.0000 C   0  0  0  0  0  0  0  0  0  0  0  0
  1  2  1  0  0  0  0
  2  3  1  0  0  0  0
  2  4  2  0  0  0  0
  3  5  1  0  0  0  0
  3  6  2  0  0  0  0
  5  7  1  0  0  0  0
  7  8  1  0  0  0  0
  8  9  1  0  0  0  0
  9 10  1  0  0  0  0
 10 11  1  0  0  0  0
 10 12  2  0  0  0  0
 11 13  1  0  0  0  0
 11 14  2  0  0  0  0
M  END
> <ID>
CHEBI:53436

> <NAME>
ethylene glycol dimethacrylate

> <DEFINITION>
The enoate ester that is the 1,2-bis(methacryloyl) derivative of ethylene glycol.

> <STAR>
3

> <SYNONYM>
Methacrylic acid ethylene ester; Glycol dimethacrylate; Ethylenedimethyacrylate; Ethylene methacrylate; Ethylene glycol dimethacrylate; Ethylene glycol bis(methacrylate); Ethylene dimethacrylate; Ethyldiol methacrylate; Ethyldiol metacrylate; Ethanediol dimethacrylate; EGDMA; Diglycol dimethacrylate; 2-methyl-2-propenoic acid 1,2-ethanediyl ester; 2-(Methacryloyloxy)ethyl 2-methylacrylate; 1,2-Ethanediyl 2-methyl-2-propenoate; 1,2-Ethanediol dimethacrylate; 1,2-Bis(methacryloyloxy)ethane; 1,2-Bis(Methacryloyloxy)ethane

> <IUPAC_NAME>
ethane-1,2-diyl bis(2-methylacrylate)

> <FORMULA>
C10H14O4

> <MASS>
198.21580

> <MONOISOTOPIC_MASS>
198.08921

> <CHARGE>
0

> <SMILES>
CC(=C)C(=O)OCCOC(=O)C(C)=C

> <INCHI>
InChI=1S/C10H14O4/c1-7(2)9(11)13-5-6-14-10(12)8(3)4/h1,3,5-6H2,2,4H3

> <INCHIKEY>
STVZJERGLQHEKB-UHFFFAOYSA-N

> <BEILSTEIN_REGISTRY_NUMBER>
1776663

> <CAS_REGISTRY_NUMBER>
97-90-5

> <GMELIN_REGISTRY_NUMBER>
637376

> <REAXYS_REGISTRY_NUMBER>
1776663

> <CHEMIDPLUS>
97-90-5

> <NIST_CHEMISTRY_WEBBOOK>
97-90-5

> <WIKIPEDIA_ACCESSION>
Ethylene_glycol_dimethacrylate

> <PUBMED_CITATION>
10444249; 11714252; 19091218; 23161346; 23180752; 23229725; 23246931; 23350065; 23351340; 23360228; 23390113; 23465129; 23481473; 23544352; 23560989; 23561202; 23602644; 23640909; 23726080; 23780342

$$$$

Marvin  10210913252D          

 13 12  0  0  1  0            999 V2000
    2.1434    0.2292    0.0000 C   0  0  0  0  0  0  0  0  0  0  0  0
    2.8579   -0.1833    0.0000 H   0  0  0  0  0  0  0  0  0  0  0  0
    1.4289   -0.1833    0.0000 C   0  0  0  0  0  0  0  0  0  0  0  0
    0.7145    0.2292    0.0000 C   0  0  0  0  0  0  0  0  0  0  0  0
   -1.4289   -0.1833    0.0000 C   0  0  0  0  0  0  0  0  0  0  0  0
    0.0000   -0.1833    0.0000 C   0  0  0  0  0  0  0  0  0  0  0  0
   -0.7145    0.2292    0.0000 C   0  0  0  0  0  0  0  0  0  0  0  0
   -2.8579   -0.1833    0.0000 C   0  0  0  0  0  0  0  0  0  0  0  0
   -2.1434    0.2292    0.0000 C   0  0  0  0  0  0  0  0  0  0  0  0
   -2.1434    1.0542    0.0000 C   0  0  0  0  0  0  0  0  0  0  0  0
    0.7145    1.0542    0.0000 C   0  0  0  0  0  0  0  0  0  0  0  0
    2.1434    1.0542    0.0000 O   0  0  0  0  0  0  0  0  0  0  0  0
   -2.8579    0.6417    0.0000 O   0  0  0  0  0  0  0  0  0  0  0  0
  1 12  2  0  0  0  0
  1  2  1  0  0  0  0
  1  3  1  0  0  0  0
  4  3  1  0  0  0  0
  4 11  1  0  0  0  0
  6  4  1  0  0  0  0
  7  5  1  0  0  0  0
  7  6  1  0  0  0  0
  9  5  1  0  0  0  0
  9  8  1  0  0  0  0
 10  9  1  0  0  0  0
  9 13  1  0  0  0  0
M  END
> <ID>
CHEBI:53459

> <NAME>
hydroxycitronellal

> <DEFINITION>
The tertiary alcohol arising from addition of water across the C=C double bond of citronellal.

> <STAR>
3

> <SYNONYM>
hydroxy citronellal; Citronellal hydrate; 7-hydroxycitronellal; 3,7-Dimethyl-7-hydroxyoctanal; 3,7-dimethyl-7-hydroxyoctan-1-al

> <IUPAC_NAME>
7-hydroxy-3,7-dimethyloctanal

> <FORMULA>
C10H20O2

> <MASS>
172.26460

> <MONOISOTOPIC_MASS>
172.14633

> <CHARGE>
0

> <SMILES>
[H]C(=O)CC(C)CCCC(C)(C)O

> <INCHI>
InChI=1S/C10H20O2/c1-9(6-8-11)5-4-7-10(2,3)12/h8-9,12H,4-7H2,1-3H3

> <INCHIKEY>
WPFVBOQKRVRMJB-UHFFFAOYSA-N

> <BEILSTEIN_REGISTRY_NUMBER>
1721290

> <CAS_REGISTRY_NUMBER>
107-75-5

> <REAXYS_REGISTRY_NUMBER>
1721290

> <CHEMIDPLUS>
107-75-5

> <HMDB_ACCESSION>
HMDB0031739

> <NIST_CHEMISTRY_WEBBOOK>
107-75-5

> <PUBMED_CITATION>
12786728; 14678209; 17598033; 17936526; 19243479; 20495907; 20795681; 21392029; 2808836; 3264801; 455972; 467024; 8681536; 8735869; 8879930

$$$$

Marvin  11060911542D          

 13 13  0  0  0  0            999 V2000
   -0.2652    0.0295    0.0000 C   0  0  0  0  0  0  0  0  0  0  0  0
   -0.9796   -0.3830    0.0000 C   0  0  0  0  0  0  0  0  0  0  0  0
   -0.9796   -1.2080    0.0000 C   0  0  0  0  0  0  0  0  0  0  0  0
   -0.2652   -1.6206    0.0000 C   0  0  0  0  0  0  0  0  0  0  0  0
    0.4493   -1.2080    0.0000 C   0  0  0  0  0  0  0  0  0  0  0  0
    0.4493   -0.3830    0.0000 C   0  0  0  0  0  0  0  0  0  0  0  0
   -0.2652    0.8545    0.0000 C   0  0  0  0  0  0  0  0  0  0  0  0
    1.1638    0.0295    0.0000 N   0  0  0  0  0  0  0  0  0  0  0  0
    1.8782   -0.3830    0.0000 C   0  0  0  0  0  0  0  0  0  0  0  0
    2.5927   -0.7955    0.0000 O   0  0  0  0  0  0  0  0  0  0  0  0
   -0.2652   -2.4456    0.0000 N   0  0  0  0  0  0  0  0  0  0  0  0
   -0.9796   -2.8581    0.0000 C   0  0  0  0  0  0  0  0  0  0  0  0
   -1.6941   -3.2706    0.0000 O   0  0  0  0  0  0  0  0  0  0  0  0
  1  2  1  0  0  0  0
  1  6  2  0  0  0  0
  2  3  2  0  0  0  0
  3  4  1  0  0  0  0
  4  5  2  0  0  0  0
  5  6  1  0  0  0  0
  1  7  1  0  0  0  0
  6  8  1  0  0  0  0
  8  9  2  0  0  0  0
  9 10  2  0  0  0  0
  4 11  1  0  0  0  0
 11 12  2  0  0  0  0
 12 13  2  0  0  0  0
M  END
> <ID>
CHEBI:53556

> <NAME>
toluene 2,4-diisocyanate

> <DEFINITION>
A toluene meta-diisocyanate in which the isocyanato groups are at positions 2 and 4 relative to the methyl group on the benzene ring.

> <STAR>
3

> <SYNONYM>
Tolylene-2,4-diisocyanate; Toluylene-2,4-diisocyanate; toluene-2,4-diyl diisocyanate; TDI; Isocyanic acid, 4-methyl-m-phenylene ester; 4-Methyl-m-phenylene diisocyanate; 2,4-Tolylene diisocyanate; 2,4-Toluene diisocyanate; 2,4-TDI; 2,4-Diisocyanatotoluene

> <IUPAC_NAME>
2,4-diisocyanato-1-methylbenzene

> <FORMULA>
C9H6N2O2

> <MASS>
174.15610

> <MONOISOTOPIC_MASS>
174.04293

> <CHARGE>
0

> <SMILES>
Cc1ccc(cc1N=C=O)N=C=O

> <INCHI>
InChI=1S/C9H6N2O2/c1-7-2-3-8(10-5-12)4-9(7)11-6-13/h2-4H,1H3

> <INCHIKEY>
DVKJHBMWWAPEIU-UHFFFAOYSA-N

> <BEILSTEIN_REGISTRY_NUMBER>
744602

> <CAS_REGISTRY_NUMBER>
584-84-9

> <REAXYS_REGISTRY_NUMBER>
744602

> <CHEMIDPLUS>
584-84-9

> <NIST_CHEMISTRY_WEBBOOK>
584-84-9

> <WIKIPEDIA_ACCESSION>
Toluene_diisocyanate

> <PUBMED_CITATION>
17042142; 19647056; 21725071; 21878336; 22151392; 22206939; 22229538; 24572447; 24950844; 25042713; 6296214; 9811173

$$$$

Marvin  11060912022D          

 13 13  0  0  0  0            999 V2000
   -0.4125    1.6795    0.0000 C   0  0  0  0  0  0  0  0  0  0  0  0
   -1.1270    1.2670    0.0000 C   0  0  0  0  0  0  0  0  0  0  0  0
   -1.1270    0.4420    0.0000 C   0  0  0  0  0  0  0  0  0  0  0  0
   -0.4125    0.0294    0.0000 C   0  0  0  0  0  0  0  0  0  0  0  0
    0.3020    0.4420    0.0000 C   0  0  0  0  0  0  0  0  0  0  0  0
    0.3020    1.2670    0.0000 C   0  0  0  0  0  0  0  0  0  0  0  0
   -0.4125    2.5045    0.0000 C   0  0  0  0  0  0  0  0  0  0  0  0
    1.0164    1.6795    0.0000 N   0  0  0  0  0  0  0  0  0  0  0  0
    1.7309    1.2670    0.0000 C   0  0  0  0  0  0  0  0  0  0  0  0
    2.4454    0.8545    0.0000 O   0  0  0  0  0  0  0  0  0  0  0  0
   -1.8414    1.6795    0.0000 N   0  0  0  0  0  0  0  0  0  0  0  0
   -2.5559    1.2670    0.0000 C   0  0  0  0  0  0  0  0  0  0  0  0
   -3.2704    0.8545    0.0000 O   0  0  0  0  0  0  0  0  0  0  0  0
  1  2  1  0  0  0  0
  1  6  2  0  0  0  0
  2  3  2  0  0  0  0
  3  4  1  0  0  0  0
  4  5  2  0  0  0  0
  5  6  1  0  0  0  0
  1  7  1  0  0  0  0
  6  8  1  0  0  0  0
  8  9  2  0  0  0  0
  9 10  2  0  0  0  0
  2 11  1  0  0  0  0
 11 12  2  0  0  0  0
 12 13  2  0  0  0  0
M  END
> <ID>
CHEBI:53557

> <NAME>
toluene 2,6-diisocyanate

> <DEFINITION>
A toluene meta-diisocyanate in which the isocyanato groups are at positions 2 and 6 relative to the methyl group on the benzene ring.

> <STAR>
3

> <SYNONYM>
TDI; meta-Tolylene diisocyanate; m-Tolylene diisocyanate; Isocyanic acid, 2-methyl-meta-phenylene ester; 2-Methyl-meta-phenylene isocyanate; 2,6-Toluene diisocyanate; 2,6-TDI; 2,6-Diisocyanatotoluene; 2,6-Diisocyanato-1-methylbenzene

> <IUPAC_NAME>
1,3-diisocyanato-2-methylbenzene

> <FORMULA>
C9H6N2O2

> <MASS>
174.15610

> <MONOISOTOPIC_MASS>
174.04293

> <CHARGE>
0

> <SMILES>
Cc1c(cccc1N=C=O)N=C=O

> <INCHI>
InChI=1S/C9H6N2O2/c1-7-8(10-5-12)3-2-4-9(7)11-6-13/h2-4H,1H3

> <INCHIKEY>
RUELTTOHQODFPA-UHFFFAOYSA-N

> <BEILSTEIN_REGISTRY_NUMBER>
2211546

> <CAS_REGISTRY_NUMBER>
91-08-7

> <REAXYS_REGISTRY_NUMBER>
2211546

> <CHEMIDPLUS>
91-08-7

> <WIKIPEDIA_ACCESSION>
Toluene_diisocyanate

> <PUBMED_CITATION>
17042142; 21725071; 21878336; 22229538; 24572447; 24950844; 6296214; 7503403; 9811173

$$$$

Marvin  11090914322D          

 12 11  0  0  0  0            999 V2000
   -4.3018    0.4125    0.0000 N   0  0  0  0  0  0  0  0  0  0  0  0
   -3.5873    0.8250    0.0000 C   0  0  0  0  0  0  0  0  0  0  0  0
   -2.8728    0.4125    0.0000 C   0  0  0  0  0  0  0  0  0  0  0  0
   -2.1584    0.8250    0.0000 C   0  0  0  0  0  0  0  0  0  0  0  0
   -1.4439    0.4125    0.0000 C   0  0  0  0  0  0  0  0  0  0  0  0
   -0.7294    0.8250    0.0000 C   0  0  0  0  0  0  0  0  0  0  0  0
   -0.0150    0.4125    0.0000 C   0  0  0  0  0  0  0  0  0  0  0  0
    0.6995    0.8250    0.0000 N   0  0  0  0  0  0  0  0  0  0  0  0
    1.4140    0.4125    0.0000 C   0  0  0  0  0  0  0  0  0  0  0  0
    2.1285   -0.0000    0.0000 O   0  0  0  0  0  0  0  0  0  0  0  0
   -5.0163    0.8250    0.0000 C   0  0  0  0  0  0  0  0  0  0  0  0
   -5.7307    1.2375    0.0000 O   0  0  0  0  0  0  0  0  0  0  0  0
  1  2  1  0  0  0  0
  2  3  1  0  0  0  0
  3  4  1  0  0  0  0
  4  5  1  0  0  0  0
  5  6  1  0  0  0  0
  6  7  1  0  0  0  0
  7  8  1  0  0  0  0
  8  9  2  0  0  0  0
  9 10  2  0  0  0  0
  1 11  2  0  0  0  0
 11 12  2  0  0  0  0
M  END
> <ID>
CHEBI:53578

> <NAME>
hexamethylene diisocyanate

> <DEFINITION>
A diisocyanate compound with the two isocyanates linked by a hexane-1,6-diyl group.

> <STAR>
3

> <SYNONYM>
HMDI; Hexane 1,6-diisocyanate; Hexamethylene-1,6-diisocyanate; Hexamethylene diisocyanate; HDI; 1,6-Hexylene diisocyanate; 1,6-Hexanediol diisocyanate; 1,6-Hexamethylene diisocyanate; 1,6-Diisocyanatohexane

> <IUPAC_NAME>
1,6-diisocyanatohexane

> <FORMULA>
C8H12N2O2

> <MASS>
168.19310

> <MONOISOTOPIC_MASS>
168.08988

> <CHARGE>
0

> <SMILES>
O=C=NCCCCCCN=C=O

> <INCHI>
InChI=1S/C8H12N2O2/c11-7-9-5-3-1-2-4-6-10-8-12/h1-6H2

> <INCHIKEY>
RRAMGCGOFNQTLD-UHFFFAOYSA-N

> <BEILSTEIN_REGISTRY_NUMBER>
956709

> <CAS_REGISTRY_NUMBER>
822-06-0

> <GMELIN_REGISTRY_NUMBER>
50636

> <REAXYS_REGISTRY_NUMBER>
956709

> <CHEMIDPLUS>
822-06-0

> <NIST_CHEMISTRY_WEBBOOK>
822-06-0

> <WIKIPEDIA_ACCESSION>
Hexamethylene_diisocyanate

> <PUBMED_CITATION>
11927838; 16731584; 17042142; 21878336; 22293954; 22419182; 22449630; 23178851; 23262421; 23421488; 24083673; 6296214

$$$$

Marvin  11090916432D          

 31 36  0  0  1  0            999 V2000
   10.9120   -3.4730    0.0000 C   0  0  0  0  0  0  0  0  0  0  0  0
   10.9120   -4.2981    0.0000 C   0  0  0  0  0  0  0  0  0  0  0  0
   11.6265   -4.7106    0.0000 C   0  0  0  0  0  0  0  0  0  0  0  0
   12.3410   -4.2981    0.0000 C   0  0  0  0  0  0  0  0  0  0  0  0
   12.3410   -3.4730    0.0000 C   0  0  0  0  0  0  0  0  0  0  0  0
   11.6265   -3.0605    0.0000 C   0  0  0  0  0  0  0  0  0  0  0  0
   11.6265   -5.5356    0.0000 C   0  0  2  0  0  0  0  0  0  0  0  0
   12.3410   -5.9481    0.0000 C   0  0  2  0  0  0  0  0  0  0  0  0
   13.0555   -5.5356    0.0000 C   0  0  1  0  0  0  0  0  0  0  0  0
   13.0555   -4.7106    0.0000 C   0  0  0  0  0  0  0  0  0  0  0  0
   10.9120   -5.9481    0.0000 C   0  0  2  0  0  0  0  0  0  0  0  0
   10.9120   -6.7731    0.0000 C   0  0  2  0  0  0  0  0  0  0  0  0
   11.6265   -7.1856    0.0000 C   0  0  0  0  0  0  0  0  0  0  0  0
   12.3410   -6.7731    0.0000 C   0  0  0  0  0  0  0  0  0  0  0  0
   10.3757   -5.1231    0.0000 O   0  0  0  0  0  0  0  0  0  0  0  0
   13.7712   -5.9487    0.0000 N   0  0  0  0  0  0  0  0  0  0  0  0
   10.1976   -7.1856    0.0000 O   0  0  0  0  0  0  0  0  0  0  0  0
   10.1976   -3.0605    0.0000 O   0  0  0  0  0  0  0  0  0  0  0  0
    9.4930   -3.4674    0.0000 C   0  0  0  0  0  0  0  0  0  0  0  0
    8.7933   -3.0634    0.0000 C   0  0  0  0  0  0  0  0  0  0  0  0
    8.0913   -3.4688    0.0000 N   0  0  0  0  0  0  0  0  0  0  0  0
    7.3903   -3.0642    0.0000 C   0  0  0  0  0  0  0  0  0  0  0  0
    6.6759   -3.4767    0.0000 C   0  0  0  0  0  0  0  0  0  0  0  0
    6.6759   -4.3017    0.0000 O   0  0  0  0  0  0  0  0  0  0  0  0
    7.3769   -4.7063    0.0000 C   0  0  0  0  0  0  0  0  0  0  0  0
    8.0913   -4.2938    0.0000 C   0  0  0  0  0  0  0  0  0  0  0  0
   10.1210   -6.1825    0.0000 H   0  0  0  0  0  0  0  0  0  0  0  0
   12.2545   -5.0164    0.0000 C   0  0  0  0  0  0  0  0  0  0  0  0
   13.0664   -6.3671    0.0000 H   0  0  0  0  0  0  0  0  0  0  0  0
   13.7397   -4.9996    0.0000 C   0  0  0  0  0  0  0  0  0  0  0  0
   14.1916   -6.6502    0.0000 C   0  0  0  0  0  0  0  0  0  0  0  0
  1  2  2  0  0  0  0
  2  3  1  0  0  0  0
  3  4  2  0  0  0  0
  4  5  1  0  0  0  0
  5  6  2  0  0  0  0
  1  6  1  0  0  0  0
  3  7  1  0  0  0  0
  7  8  1  0  0  0  0
  8  9  1  0  0  0  0
  9 10  1  0  0  0  0
  4 10  1  0  0  0  0
  7 11  1  0  0  0  0
 11 12  1  0  0  0  0
 12 13  1  0  0  0  0
 13 14  2  0  0  0  0
  8 14  1  0  0  0  0
  2 15  1  0  0  0  0
 11 15  1  0  0  0  0
  9 16  1  1  0  0  0
 12 17  1  6  0  0  0
  1 18  1  0  0  0  0
 18 19  1  0  0  0  0
 19 20  1  0  0  0  0
 20 21  1  0  0  0  0
 21 22  1  0  0  0  0
 22 23  1  0  0  0  0
 23 24  1  0  0  0  0
 24 25  1  0  0  0  0
 25 26  1  0  0  0  0
 21 26  1  0  0  0  0
 11 27  1  1  0  0  0
  7 28  1  1  0  0  0
  8 29  1  1  0  0  0
 16 30  1  0  0  0  0
 30 28  1  0  0  0  0
 16 31  1  0  0  0  0
M  END
> <ID>
CHEBI:53579

> <NAME>
pholcodine

> <DEFINITION>
A morphinane alkaloid that is a derivative of morphine with a 2-morpholinoethyl group at the 3-position.

> <STAR>
3

> <SYNONYM>
Tetrahydro-1,4-oxazinylmethylcodeine; Morpholinylethylmorphine; beta-Morpholinoethylmorphine; 7,8-Didehydro-4,5-alpha-epoxy-17-methyl-3-(2-morpholinoethoxy)morphinan-6-alpha-ol; 3-Morpholylaethylmorphin; 3-morpholinoethylmorphine; 3-(2-Morpholinoethyl)morphine; 3-(2-(4-Morpholinyl)ethyl)morphine

> <IUPAC_NAME>
(5alpha,6alpha)-17-methyl-3-[2-(morpholin-4-yl)ethoxy]-7,8-didehydro-4,5-epoxymorphinan-6-ol

> <INN>
pholcodinum; pholcodine; folcodina

> <FORMULA>
C23H30N2O4

> <MASS>
398.49530

> <MONOISOTOPIC_MASS>
398.22056

> <CHARGE>
0

> <SMILES>
[H][C@@]12Oc3c(OCCN4CCOCC4)ccc4C[C@H]5N(C)CC[C@@]1(c34)[C@@]5([H])C=C[C@@H]2O

> <INCHI>
InChI=1S/C23H30N2O4/c1-24-7-6-23-16-3-4-18(26)22(23)29-21-19(5-2-15(20(21)23)14-17(16)24)28-13-10-25-8-11-27-12-9-25/h2-5,16-18,22,26H,6-14H2,1H3/t16-,17+,18-,22-,23-/m0/s1

> <INCHIKEY>
GPFAJKDEDBRFOS-FKQDBXSBSA-N

> <BEILSTEIN_REGISTRY_NUMBER>
63383

> <CAS_REGISTRY_NUMBER>
509-67-1

> <REAXYS_REGISTRY_NUMBER>
63383

> <CHEMIDPLUS>
509-67-1

> <KEGG_DRUG_ACCESSION>
D07385

> <NIST_CHEMISTRY_WEBBOOK>
509-67-1

> <WIKIPEDIA_ACCESSION>
Pholcodine

> <PUBMED_CITATION>
11829134; 12593758; 17667569; 1910552; 19210354; 19563989; 19796197; 22380984; 23283141; 23772895; 29368335

$$$$

Marvin  11110911522D          

 16 16  0  0  0  0            999 V2000
    0.4125    1.8209    0.0000 O   0  0  0  0  0  0  0  0  0  0  0  0
    0.4125    0.9959    0.0000 C   0  0  0  0  0  0  0  0  0  0  0  0
    0.9959    0.4125    0.0000 C   0  0  0  0  0  0  0  0  0  0  0  0
    1.8209    0.4125    0.0000 O   0  0  0  0  0  0  0  0  0  0  0  0
    0.4125   -0.1709    0.0000 C   0  0  0  0  0  0  0  0  0  0  0  0
    0.4125   -0.9959    0.0000 O   0  0  0  0  0  0  0  0  0  0  0  0
   -0.1709    0.4125    0.0000 C   0  0  0  0  0  0  0  0  0  0  0  0
   -0.9959    0.4125    0.0000 O   0  0  0  0  0  0  0  0  0  0  0  0
    2.5353    0.8250    0.0000 C   0  0  0  0  0  0  0  0  0  0  0  0
    3.2498    0.4125    0.0000 C   0  0  0  0  0  0  0  0  0  0  0  0
    3.9643    0.8250    0.0000 C   0  0  0  0  0  0  0  0  0  0  0  0
    4.6787    0.4125    0.0000 C   0  0  0  0  0  0  0  0  0  0  0  0
    1.1270    2.2334    0.0000 C   0  0  0  0  0  0  0  0  0  0  0  0
    1.8414    1.8209    0.0000 C   0  0  0  0  0  0  0  0  0  0  0  0
    2.5559    2.2334    0.0000 C   0  0  0  0  0  0  0  0  0  0  0  0
    3.2704    1.8209    0.0000 C   0  0  0  0  0  0  0  0  0  0  0  0
  1  2  1  0  0  0  0
  2  3  2  0  0  0  0
  3  4  1  0  0  0  0
  3  5  1  0  0  0  0
  5  6  2  0  0  0  0
  5  7  1  0  0  0  0
  2  7  1  0  0  0  0
  7  8  2  0  0  0  0
  4  9  1  0  0  0  0
  9 10  1  0  0  0  0
 10 11  1  0  0  0  0
 11 12  1  0  0  0  0
  1 13  1  0  0  0  0
 13 14  1  0  0  0  0
 14 15  1  0  0  0  0
 15 16  1  0  0  0  0
M  END
> <ID>
CHEBI:53612

> <NAME>
squaric acid dibutyl ester

> <DEFINITION>
A cyclic ketone and diether that is a dibutyl ether derivative of squaric acid.

> <STAR>
3

> <SYNONYM>
squaric acid dibutylester; SADBE; 3,4-Dibutoxy-3-cyclobutene-1,2-dione; 3,4-di-n-butoxy-3-cyclobutene-1,2-dione; 1,2-dibutyl squarate

> <IUPAC_NAME>
3,4-dibutoxycyclobut-3-ene-1,2-dione

> <FORMULA>
C12H18O4

> <MASS>
226.26890

> <MONOISOTOPIC_MASS>
226.12051

> <CHARGE>
0

> <SMILES>
CCCCOc1c(OCCCC)c(=O)c1=O

> <INCHI>
InChI=1S/C12H18O4/c1-3-5-7-15-11-9(13)10(14)12(11)16-8-6-4-2/h3-8H2,1-2H3

> <INCHIKEY>
XBRWELTXMQSEIN-UHFFFAOYSA-N

> <BEILSTEIN_REGISTRY_NUMBER>
1968189

> <CAS_REGISTRY_NUMBER>
2892-62-8

> <REAXYS_REGISTRY_NUMBER>
1968189

> <CHEMIDPLUS>
2892-62-8

> <PUBMED_CITATION>
10495383; 10990585; 12181482; 12433000; 15897160; 18346258; 18413111; 1868701; 21188022; 21679832; 21728175; 22672837; 2311796; 23134989; 23611147; 24704378; 3882480; 6384701; 6725657; 7004402; 7439477; 8358098; 8796751

$$$$

Marvin  11110915502D          

 10 10  0  0  0  0            999 V2000
   -1.2080    0.8839    0.0000 C   0  0  0  0  0  0  0  0  0  0  0  0
   -1.9225    0.4714    0.0000 C   0  0  0  0  0  0  0  0  0  0  0  0
   -1.9225   -0.3536    0.0000 C   0  0  0  0  0  0  0  0  0  0  0  0
   -1.2080   -0.7661    0.0000 C   0  0  0  0  0  0  0  0  0  0  0  0
   -0.4936   -0.3536    0.0000 C   0  0  0  0  0  0  0  0  0  0  0  0
   -0.4936    0.4714    0.0000 C   0  0  0  0  0  0  0  0  0  0  0  0
   -1.2080    1.7089    0.0000 N   0  0  0  0  0  0  0  0  0  0  0  0
   -1.2080   -1.5911    0.0000 N   0  0  0  0  0  0  0  0  0  0  0  0
    0.2209    0.8839    0.0000 C   0  0  0  0  0  0  0  0  0  0  0  0
   -2.6370   -0.7661    0.0000 C   0  0  0  0  0  0  0  0  0  0  0  0
  1  2  1  0  0  0  0
  1  6  2  0  0  0  0
  2  3  2  0  0  0  0
  3  4  1  0  0  0  0
  4  5  2  0  0  0  0
  5  6  1  0  0  0  0
  1  7  1  0  0  0  0
  4  8  1  0  0  0  0
  6  9  1  0  0  0  0
  3 10  1  0  0  0  0
M  END
> <ID>
CHEBI:53613

> <NAME>
2,5-dimethyl-p-phenylenediamine

> <DEFINITION>
A primary arylamine that is p-xylene substituted at the 2 and 5 positions by amino groups. It is formally a reduction product of 2,5-dimethyl-1,4-benzoquinonediimine.

> <STAR>
3

> <SYNONYM>
4-Amino-2,5-dimethylaniline; 2,5-dimethylphenylene-1,4-diamine; 2,5-dimethyl-para-phenylenediamine; 2,5-dimethyl-1,4-benzoquinonediamine; 1,4-dimethylphenylene-2,5-diamine

> <IUPAC_NAME>
2,5-dimethylbenzene-1,4-diamine

> <FORMULA>
C8H12N2

> <MASS>
136.19430

> <MONOISOTOPIC_MASS>
136.10005

> <CHARGE>
0

> <SMILES>
Cc1cc(N)c(C)cc1N

> <INCHI>
InChI=1S/C8H12N2/c1-5-3-8(10)6(2)4-7(5)9/h3-4H,9-10H2,1-2H3

> <INCHIKEY>
BWAPJIHJXDYDPW-UHFFFAOYSA-N

> <BEILSTEIN_REGISTRY_NUMBER>
2802422

> <CAS_REGISTRY_NUMBER>
6393-01-7

> <REAXYS_REGISTRY_NUMBER>
2802422

> <CHEMIDPLUS>
6393-01-7

> <PUBMED_CITATION>
19469519; 23153356

$$$$

Marvin  11120912222D          

  9  9  0  0  0  0            999 V2000
   -1.6795    0.2947    0.0000 C   0  0  0  0  0  0  0  0  0  0  0  0
   -2.3939   -0.1178    0.0000 C   0  0  0  0  0  0  0  0  0  0  0  0
   -2.3939   -0.9429    0.0000 C   0  0  0  0  0  0  0  0  0  0  0  0
   -1.6795   -1.3554    0.0000 C   0  0  0  0  0  0  0  0  0  0  0  0
   -0.9650   -0.9429    0.0000 C   0  0  0  0  0  0  0  0  0  0  0  0
   -0.9650   -0.1178    0.0000 C   0  0  0  0  0  0  0  0  0  0  0  0
   -1.6795    1.1197    0.0000 N   0  0  0  0  0  0  0  0  0  0  0  0
   -1.6795   -2.1804    0.0000 N   0  0  0  0  0  0  0  0  0  0  0  0
   -0.2505    0.2947    0.0000 C   0  0  0  0  0  0  0  0  0  0  0  0
  1  2  1  0  0  0  0
  1  6  2  0  0  0  0
  2  3  2  0  0  0  0
  3  4  1  0  0  0  0
  4  5  2  0  0  0  0
  5  6  1  0  0  0  0
  1  7  1  0  0  0  0
  4  8  1  0  0  0  0
  6  9  1  0  0  0  0
M  END
> <ID>
CHEBI:53619

> <NAME>
2-methyl-1,4-phenylenediamine

> <DEFINITION>
A diamine in which the two amino groups are substituted into toluene at the 2- and 5-positions.

> <STAR>
3

> <SYNONYM>
toluene-2,5-diamine; p-Toluenediamine; 4-Amino-2-methylaniline; 2-Methyl-1,4-benzenediamine; 2-Methyl-1,4-benzenediamine; 2,5-Toluenediamine; 2,5-Diaminotoluene; 2,5-diamino-1-methylbenzene; 1-methyl-2,5-diaminobenzene

> <IUPAC_NAME>
2-methylbenzene-1,4-diamine

> <FORMULA>
C7H10N2

> <MASS>
122.16770

> <MONOISOTOPIC_MASS>
122.08440

> <CHARGE>
0

> <SMILES>
Cc1cc(N)ccc1N

> <INCHI>
InChI=1S/C7H10N2/c1-5-4-6(8)2-3-7(5)9/h2-4H,8-9H2,1H3

> <INCHIKEY>
OBCSAIDCZQSFQH-UHFFFAOYSA-N

> <BEILSTEIN_REGISTRY_NUMBER>
774521

> <CAS_REGISTRY_NUMBER>
95-70-5

> <REAXYS_REGISTRY_NUMBER>
774521

> <CHEMIDPLUS>
95-70-5

> <KEGG_COMPOUND_ACCESSION>
C19386

> <PUBMED_CITATION>
18844695

$$$$

Marvin  05131117462D          

 23 24  0  0  1  0            999 V2000
   13.8741   -7.0771    0.0000 C   0  0  0  0  0  0  0  0  0  0  0  0
   13.8741   -7.9021    0.0000 C   0  0  1  0  0  0  0  0  0  0  0  0
   13.1596   -6.6646    0.0000 O   0  0  0  0  0  0  0  0  0  0  0  0
   13.1596   -8.3146    0.0000 C   0  0  2  0  0  0  0  0  0  0  0  0
   12.4452   -7.0771    0.0000 C   0  0  1  0  0  0  0  0  0  0  0  0
   12.4452   -7.9021    0.0000 C   0  0  2  0  0  0  0  0  0  0  0  0
   14.5886   -6.6646    0.0000 O   0  0  0  0  0  0  0  0  0  0  0  0
   14.5886   -8.3146    0.0000 O   0  0  0  0  0  0  0  0  0  0  0  0
   13.1596   -9.1396    0.0000 O   0  0  0  0  0  0  0  0  0  0  0  0
   11.7307   -8.3146    0.0000 O   0  0  0  0  0  0  0  0  0  0  0  0
   11.7307   -6.6646    0.0000 C   0  0  0  0  0  0  0  0  0  0  0  0
   11.0162   -7.0771    0.0000 O   0  0  0  0  0  0  0  0  0  0  0  0
   12.4452   -9.5521    0.0000 C   0  0  2  0  0  0  0  0  0  0  0  0
   12.4452  -10.3771    0.0000 C   0  0  1  0  0  0  0  0  0  0  0  0
   11.7306   -9.1396    0.0000 O   0  0  0  0  0  0  0  0  0  0  0  0
   11.7306  -10.7896    0.0000 C   0  0  2  0  0  0  0  0  0  0  0  0
   11.0162   -9.5521    0.0000 C   0  0  1  0  0  0  0  0  0  0  0  0
   11.0162  -10.3771    0.0000 C   0  0  2  0  0  0  0  0  0  0  0  0
   13.1596  -10.7896    0.0000 O   0  0  0  0  0  0  0  0  0  0  0  0
   11.7306  -11.6146    0.0000 O   0  0  0  0  0  0  0  0  0  0  0  0
   10.3017  -10.7896    0.0000 O   0  0  0  0  0  0  0  0  0  0  0  0
   10.3017   -9.1396    0.0000 C   0  0  0  0  0  0  0  0  0  0  0  0
    9.5872   -9.5521    0.0000 O   0  0  0  0  0  0  0  0  0  0  0  0
  1  2  1  0  0  0  0
  1  3  1  0  0  0  0
  2  4  1  0  0  0  0
  3  5  1  0  0  0  0
  4  6  1  0  0  0  0
  5  6  1  0  0  0  0
  1  7  1  0  0  0  0
  2  8  1  6  0  0  0
  4  9  1  1  0  0  0
  6 10  1  1  0  0  0
  5 11  1  1  0  0  0
 12 11  1  0  0  0  0
 13 14  1  0  0  0  0
 13 15  1  0  0  0  0
 14 16  1  0  0  0  0
 15 17  1  0  0  0  0
 16 18  1  0  0  0  0
 17 18  1  0  0  0  0
 13  9  1  6  0  0  0
 14 19  1  6  0  0  0
 16 20  1  1  0  0  0
 18 21  1  1  0  0  0
 17 22  1  1  0  0  0
 23 22  1  0  0  0  0
M  END
> <ID>
CHEBI:53651

> <NAME>
alpha-D-galactosyl-(1->3)-D-galactose

> <DEFINITION>
A galactobiose comprising an α-D-galactopyranose residue and a D-galactopyranose residue joined via an α-(1→3) linkage.

> <STAR>
3

> <SECONDARY_ID>
CHEBI:62083

> <SYNONYM>
human blood group type B linear epitope; Galalpha1-3Gal; Galalpha1,3Gal; Galalpha,3Gal; galactose-alpha-1,3-galactose; galactose-alpha-(1,3)-galactose; Gal-alpha1,3-Gal; Gal-alpha(1,3)Gal; Gal(alpha1-3)Gal; dialphaGal; Bdi-epitope; Bdi; alpha1,3Gal; alpha-Gal; alpha-D-Galp-(1->3)-D-Galp; alpha-D-galactosyl-(1->3)-D-galactose; alpha-D-Gal-(1->3)-D-Gal; 3-O-alpha-D-Galactopyranosyl-D-galactose; 3-O-alpha-D-galactopyranosyl-D-galactopyranose; (Gal)2

> <IUPAC_NAME>
alpha-D-galactopyranosyl-(1->3)-D-galactose

> <FORMULA>
C12H22O11

> <MASS>
342.29650

> <MONOISOTOPIC_MASS>
342.11621

> <CHARGE>
0

> <SMILES>
OC[C@H]1O[C@H](O[C@@H]2[C@@H](O)C(O)O[C@H](CO)[C@@H]2O)[C@H](O)[C@@H](O)[C@H]1O

> <INCHI>
InChI=1S/C12H22O11/c13-1-3-5(15)7(17)8(18)12(22-3)23-10-6(16)4(2-14)21-11(20)9(10)19/h3-20H,1-2H2/t3-,4-,5+,6+,7+,8-,9-,10+,11?,12-/m1/s1

> <INCHIKEY>
QIGJYVCQYDKYDW-SDOYDPJRSA-N

> <REAXYS_REGISTRY_NUMBER>
1435319

> <KEGG_GLYCAN_ACCESSION>
G00406

> <PUBMED_CITATION>
10096519; 10355731; 10503783; 10642605; 10839120; 10988247; 11055406; 12626386; 1372543; 14631106; 17006649; 17724458; 17991151; 19070355; 19695255; 19913595; 21496117; 2410529; 25439422; 25668901; 26130470; 27261450; 27373998; 27873733; 28124083; 28701697; 29235434; 7438134; 7524207; 7595205; 7688662; 8154046; 8279016; 9038265; 9068006

$$$$

Marvin  11170915002D          

 35 38  0  0  1  0            999 V2000
   16.0906   -8.7814    0.0000 C   0  0  2  0  0  0  0  0  0  0  0  0
   16.0906   -9.6064    0.0000 N   0  0  0  0  0  0  0  0  0  0  0  0
   16.8051  -10.0189    0.0000 C   0  0  0  0  0  0  0  0  0  0  0  0
   17.5196   -9.6064    0.0000 C   0  0  0  0  0  0  0  0  0  0  0  0
   17.5196   -8.7814    0.0000 C   0  0  0  0  0  0  0  0  0  0  0  0
   16.8051   -8.3689    0.0000 S   0  0  0  0  0  0  0  0  0  0  0  0
   15.2655   -8.7814    0.0000 C   0  0  1  0  0  0  0  0  0  0  0  0
   15.2655   -9.6064    0.0000 C   0  0  0  0  0  0  0  0  0  0  0  0
   14.5511   -8.3689    0.0000 N   0  0  0  0  0  0  0  0  0  0  0  0
   13.8365   -8.7814    0.0000 C   0  0  0  0  0  0  0  0  0  0  0  0
   13.8365   -9.6064    0.0000 O   0  0  0  0  0  0  0  0  0  0  0  0
   14.5511  -10.0189    0.0000 O   0  0  0  0  0  0  0  0  0  0  0  0
   13.1220   -8.3689    0.0000 C   0  0  1  0  0  0  0  0  0  0  0  0
   18.2451  -10.0255    0.0000 C   0  0  0  0  0  0  0  0  0  0  0  0
   16.8051  -10.8438    0.0000 C   0  0  0  0  0  0  0  0  0  0  0  0
   16.0807  -11.2621    0.0000 O   0  0  0  0  0  0  0  0  0  0  0  0
   17.5096  -11.2507    0.0000 O   0  0  0  0  0  0  0  0  0  0  0  0
   12.3959   -8.7883    0.0000 C   0  0  0  0  0  0  0  0  0  0  0  0
   11.6823   -8.3763    0.0000 C   0  0  0  0  0  0  0  0  0  0  0  0
   10.9687   -8.7883    0.0000 C   0  0  0  0  0  0  0  0  0  0  0  0
   10.9687   -9.6123    0.0000 C   0  0  0  0  0  0  0  0  0  0  0  0
   11.6823  -10.0243    0.0000 C   0  0  0  0  0  0  0  0  0  0  0  0
   12.3959   -9.6123    0.0000 C   0  0  0  0  0  0  0  0  0  0  0  0
   13.1220   -7.5412    0.0000 O   0  0  0  0  0  0  0  0  0  0  0  0
   16.0906   -7.9556    0.0000 H   0  0  0  0  0  0  0  0  0  0  0  0
   18.9625   -9.6114    0.0000 S   0  0  0  0  0  0  0  0  0  0  0  0
   19.6768  -10.0240    0.0000 C   0  0  0  0  0  0  0  0  0  0  0  0
   19.9435  -10.8036    0.0000 N   0  0  0  0  0  0  0  0  0  0  0  0
   20.7690  -10.8343    0.0000 N   0  0  0  0  0  0  0  0  0  0  0  0
   21.0141  -10.0046    0.0000 N   0  0  0  0  0  0  0  0  0  0  0  0
   20.3400   -9.5279    0.0000 N   0  0  0  0  0  0  0  0  0  0  0  0
   20.3703   -8.7070    0.0000 C   0  0  0  0  0  0  0  0  0  0  0  0
   12.4075   -7.1287    0.0000 C   0  0  0  0  0  0  0  0  0  0  0  0
   12.4075   -6.3037    0.0000 O   0  0  0  0  0  0  0  0  0  0  0  0
   11.6931   -7.5412    0.0000 H   0  0  0  0  0  0  0  0  0  0  0  0
  1  2  1  0  0  0  0
  2  3  1  0  0  0  0
  3  4  2  0  0  0  0
  4  5  1  0  0  0  0
  5  6  1  0  0  0  0
  1  6  1  0  0  0  0
  1  7  1  0  0  0  0
  7  8  1  0  0  0  0
  2  8  1  0  0  0  0
  7  9  1  1  0  0  0
  9 10  1  0  0  0  0
 10 11  2  0  0  0  0
  8 12  2  0  0  0  0
 10 13  1  0  0  0  0
  4 14  1  0  0  0  0
  3 15  1  0  0  0  0
 15 16  2  0  0  0  0
 15 17  1  0  0  0  0
 13 18  1  0  0  0  0
 18 19  2  0  0  0  0
 19 20  1  0  0  0  0
 20 21  2  0  0  0  0
 21 22  1  0  0  0  0
 22 23  2  0  0  0  0
 18 23  1  0  0  0  0
 13 24  1  1  0  0  0
  1 25  1  6  0  0  0
 14 26  1  0  0  0  0
 26 27  1  0  0  0  0
 27 28  2  0  0  0  0
 28 29  1  0  0  0  0
 29 30  2  0  0  0  0
 30 31  1  0  0  0  0
 27 31  1  0  0  0  0
 31 32  1  0  0  0  0
 24 33  1  0  0  0  0
 33 34  2  0  0  0  0
 33 35  1  0  0  0  0
M  END
> <ID>
CHEBI:53654

> <NAME>
O-formylcefamandole

> <DEFINITION>
A cephalosporin compound having (R)-O-formylmandelamido and N-methylthiotetrazole side groups. It is used (as the sodium salt) as a progrug for cefamandole.

> <STAR>
3

> <SYNONYM>
(6R,7R)-7-{[(2R)-2-(formyloxy)-2-phenylacetyl]amino}-3-{[(1-methyl-1H-tetrazol-5-yl)sulfanyl]methyl}-8-oxo-5-thia-1-azabicyclo[4.2.0]oct-2-ene-2-carboxylic acid

> <IUPAC_NAME>
6beta-[(2R)-2-(formyloxy)-2-phenylacetamido]-3-{[(1-methyl-1H-tetrazol-5-yl)sulfanyl]methyl}ceph-3-em-4-carboxylic acid

> <FORMULA>
C19H18N6O6S2

> <MASS>
490.51300

> <MONOISOTOPIC_MASS>
490.07292

> <CHARGE>
0

> <SMILES>
[H]C(=O)O[C@@H](C(=O)N[C@@H]1C(=O)N2C(C(O)=O)=C(CSc3nnnn3C)CS[C@]12[H])c1ccccc1

> <INCHI>
InChI=1S/C19H18N6O6S2/c1-24-19(21-22-23-24)33-8-11-7-32-17-12(16(28)25(17)13(11)18(29)30)20-15(27)14(31-9-26)10-5-3-2-4-6-10/h2-6,9,12,14,17H,7-8H2,1H3,(H,20,27)(H,29,30)/t12-,14-,17-/m1/s1

> <INCHIKEY>
RRJHESVQVSRQEX-SUYBPPKGSA-N

> <BEILSTEIN_REGISTRY_NUMBER>
5406414

> <CAS_REGISTRY_NUMBER>
57268-80-1

> <CHEMIDPLUS>
57268-80-1

$$$$

Marvin  11300914482D          

  7  6  0  0  0  0            999 V2000
   -3.4768   -0.0884    0.0000 C   0  0  0  0  0  0  0  0  0  0  0  0
   -2.7623    0.3241    0.0000 C   0  0  0  0  0  0  0  0  0  0  0  0
   -2.0478   -0.0884    0.0000 S   0  0  0  0  0  0  0  0  0  0  0  0
   -1.3334    0.3241    0.0000 C   0  0  0  0  0  0  0  0  0  0  0  0
   -0.6189   -0.0884    0.0000 C   0  0  0  0  0  0  0  0  0  0  0  0
   -2.4603   -0.8029    0.0000 O   0  0  0  0  0  0  0  0  0  0  0  0
   -1.6354   -0.8029    0.0000 O   0  0  0  0  0  0  0  0  0  0  0  0
  1  2  2  0  0  0  0
  2  3  1  0  0  0  0
  3  4  1  0  0  0  0
  4  5  2  0  0  0  0
  3  6  2  0  0  0  0
  7  3  2  0  0  0  0
M  END
> <ID>
CHEBI:53729

> <NAME>
divinyl sulfone

> <DEFINITION>
A sulfone compound having two S-vinyl substituents.

> <STAR>
3

> <SECONDARY_ID>
CHEBI:373213

> <SYNONYM>
vinyl sulphone; Vinyl sulfone; Ethenesulfonyl-ethene; Divinyl sulphone; Bis(ethenyl)sulfone; 1-(Vinylsulfonyl)ethylene; 1,1'-Sulphonylbisethene; (CH2=CH)2SO2

> <IUPAC_NAME>
1,1'-sulfonyldiethene

> <FORMULA>
C4H6O2S

> <MASS>
118.15400

> <MONOISOTOPIC_MASS>
118.00885

> <CHARGE>
0

> <SMILES>
C=CS(=O)(=O)C=C

> <INCHI>
InChI=1S/C4H6O2S/c1-3-7(5,6)4-2/h3-4H,1-2H2

> <INCHIKEY>
AFOSIXZFDONLBT-UHFFFAOYSA-N

> <BEILSTEIN_REGISTRY_NUMBER>
1071329

> <CAS_REGISTRY_NUMBER>
77-77-0

> <GMELIN_REGISTRY_NUMBER>
558721

> <REAXYS_REGISTRY_NUMBER>
1071329

> <CHEMIDPLUS>
77-77-0

> <NIST_CHEMISTRY_WEBBOOK>
77-77-0

> <PUBMED_CITATION>
11696055; 23842569; 24299766; 12639572

$$$$
C(=NC=1(C=CC(=CC=1)C))=O
  Marvin  11300916342D          

 10 10  0  0  0  0            999 V2000
    2.8579    2.0625    0.0000 C   0  0  0  0  0  0  0  0  0  0  0  0
    2.8579    1.2374    0.0000 N   0  0  0  0  0  0  0  0  0  0  0  0
    2.8579    2.8875    0.0000 O   0  0  0  0  0  0  0  0  0  0  0  0
    2.1434    0.8249    0.0000 C   0  0  0  0  0  0  0  0  0  0  0  0
    0.7145    0.0000    0.0000 C   0  0  0  0  0  0  0  0  0  0  0  0
    1.4289    1.2374    0.0000 C   0  0  0  0  0  0  0  0  0  0  0  0
    2.1434    0.0000    0.0000 C   0  0  0  0  0  0  0  0  0  0  0  0
    1.4289   -0.4125    0.0000 C   0  0  0  0  0  0  0  0  0  0  0  0
    0.7145    0.8249    0.0000 C   0  0  0  0  0  0  0  0  0  0  0  0
    0.0000   -0.4125    0.0000 C   0  0  0  0  0  0  0  0  0  0  0  0
  2  1  2  0  0  0  0
  3  1  2  0  0  0  0
  4  2  1  0  0  0  0
  5  8  2  0  0  0  0
  6  4  1  0  0  0  0
  7  4  2  0  0  0  0
  8  7  1  0  0  0  0
  9  6  2  0  0  0  0
 10  5  1  0  0  0  0
  9  5  1  0  0  0  0
M  END
> <ID>
CHEBI:53732

> <NAME>
4-tolyl isocyanate

> <DEFINITION>
An isocyanate comprising a benzene core with isocyanato and methyl substituents para to each other.

> <STAR>
3

> <SYNONYM>
TMI; PTI; para-tolyl monoisocyanate; p-tolylmonoisocyanate; p-Tolyl isocyanate; p-Toluene isocyanate; p-TMI; p-Methylphenyl isocyanate; p-Isocyanatotoluene; Isocyanic acid, p-tolyl ester; 4-Tolyl isocyanate; 4-Tol-NCO; 4-Methylphenyl isocyanate; 4-Isocyanatotoluene

> <IUPAC_NAME>
1-isocyanato-4-methylbenzene

> <FORMULA>
C8H7NO

> <MASS>
133.14730

> <MONOISOTOPIC_MASS>
133.05276

> <CHARGE>
0

> <SMILES>
Cc1ccc(cc1)N=C=O

> <INCHI>
InChI=1S/C8H7NO/c1-7-2-4-8(5-3-7)9-6-10/h2-5H,1H3

> <INCHIKEY>
MGYGFNQQGAQEON-UHFFFAOYSA-N

> <BEILSTEIN_REGISTRY_NUMBER>
471494

> <CAS_REGISTRY_NUMBER>
622-58-2

> <REAXYS_REGISTRY_NUMBER>
471494

> <CHEMIDPLUS>
622-58-2

> <NIST_CHEMISTRY_WEBBOOK>
622-58-2

> <PUBMED_CITATION>
211841; 21878336; 24553658; 2979745; 3810654; 4037253; 6268767; 6296214; 6299614; 6821040

$$$$
00005018K
  Marvin  12150911052D          

  9  9  0  0  0  0            999 V2000
    2.3644    0.0000    0.0000 C   0  0  0  0  0  0  0  0  0  0  0  0
    1.6500   -0.4125    0.0000 C   0  0  0  0  0  0  0  0  0  0  0  0
    3.0790   -0.4125    0.0000 C   0  0  0  0  0  0  0  0  0  0  0  0
    2.3644    0.8250    0.0000 N   0  0  0  0  0  0  0  0  0  0  0  0
    1.6500   -1.2375    0.0000 C   0  0  0  0  0  0  0  0  0  0  0  0
    3.0790   -1.2375    0.0000 C   0  0  0  0  0  0  0  0  0  0  0  0
    3.0790    1.2375    0.0000 C   0  0  0  0  0  0  0  0  0  0  0  0
    2.3644   -1.6500    0.0000 C   0  0  0  0  0  0  0  0  0  0  0  0
    3.7933    1.6500    0.0000 O   0  0  0  0  0  0  0  0  0  0  0  0
  1  2  2  0  0  0  0
  1  3  1  0  0  0  0
  1  4  1  0  0  0  0
  2  5  1  0  0  0  0
  3  6  2  0  0  0  0
  4  7  2  0  0  0  0
  5  8  2  0  0  0  0
  6  8  1  0  0  0  0
  7  9  2  0  0  0  0
M  END
> <ID>
CHEBI:53806

> <NAME>
phenyl isocyanate

> <DEFINITION>
An isocyanate composed of a benzene ring bearing a single isocyanato substituent.

> <STAR>
3

> <SYNONYM>
PIC; PI; PhNCO; Phenylcarbimide; Phenyl isocyanate; Phenyl carbonimide; Isocyanic acid, phenyl ester; Carbanil

> <IUPAC_NAME>
isocyanatobenzene

> <FORMULA>
C7H5NO

> <MASS>
119.12070

> <MONOISOTOPIC_MASS>
119.03711

> <CHARGE>
0

> <SMILES>
O=C=Nc1ccccc1

> <INCHI>
InChI=1S/C7H5NO/c9-6-8-7-4-2-1-3-5-7/h1-5H

> <INCHIKEY>
DGTNSSLYPYDJGL-UHFFFAOYSA-N

> <BEILSTEIN_REGISTRY_NUMBER>
471391

> <CAS_REGISTRY_NUMBER>
103-71-9

> <REAXYS_REGISTRY_NUMBER>
471391

> <CHEMIDPLUS>
103-71-9

> <NIST_CHEMISTRY_WEBBOOK>
103-71-9

> <WIKIPEDIA_ACCESSION>
Phenylisocyanate

> <PUBMED_CITATION>
12814266; 21878336; 24446265; 25532938; 28295200; 2979745; 6296214; 6821040; 7737433; 8960156

$$$$

Marvin  12160918012D          

 16 17  0  0  0  0            999 V2000
   21.0905  -11.1189    0.0000 C   0  0  0  0  0  0  0  0  0  0  0  0
   20.3760  -11.5314    0.0000 N   0  0  0  0  0  0  0  0  0  0  0  0
   21.8049  -10.7064    0.0000 O   0  0  0  0  0  0  0  0  0  0  0  0
   19.6615  -11.1189    0.0000 C   0  0  0  0  0  0  0  0  0  0  0  0
   15.3747  -11.1189    0.0000 C   0  0  0  0  0  0  0  0  0  0  0  0
   18.2325  -10.2940    0.0000 C   0  0  0  0  0  0  0  0  0  0  0  0
   16.8036  -10.2940    0.0000 C   0  0  0  0  0  0  0  0  0  0  0  0
   17.5181   -9.8815    0.0000 C   0  0  0  0  0  0  0  0  0  0  0  0
   19.6615  -10.2940    0.0000 C   0  0  0  0  0  0  0  0  0  0  0  0
   18.9470  -11.5314    0.0000 C   0  0  0  0  0  0  0  0  0  0  0  0
   16.0891  -11.5314    0.0000 C   0  0  0  0  0  0  0  0  0  0  0  0
   15.3747  -10.2939    0.0000 C   0  0  0  0  0  0  0  0  0  0  0  0
   18.9470   -9.8815    0.0000 C   0  0  0  0  0  0  0  0  0  0  0  0
   18.2325  -11.1190    0.0000 C   0  0  0  0  0  0  0  0  0  0  0  0
   16.8036  -11.1190    0.0000 C   0  0  0  0  0  0  0  0  0  0  0  0
   16.0891   -9.8815    0.0000 C   0  0  0  0  0  0  0  0  0  0  0  0
  2  1  2  0  0  0  0
  3  1  2  0  0  0  0
  4  2  1  0  0  0  0
  5 12  1  0  0  0  0
  6 14  2  0  0  0  0
  7  8  1  0  0  0  0
  8  6  1  0  0  0  0
  9  4  1  0  0  0  0
 10  4  2  0  0  0  0
 11 15  1  0  0  0  0
 12 16  2  0  0  0  0
 13  9  2  0  0  0  0
 14 10  1  0  0  0  0
 15  7  2  0  0  0  0
 16  7  1  0  0  0  0
  6 13  1  0  0  0  0
 11  5  2  0  0  0  0
M  END
> <ID>
CHEBI:55312

> <NAME>
diphenylmethane monoisocyanate

> <DEFINITION>
An isocyanate that is the 4-isocyanato derivative of diphenylmethane.

> <STAR>
3

> <SYNONYM>
MMI; Isocyanic acid, alpha-phenyl-p-tolyl ester; IDM; alpha-Phenyl-p-tolyl isocyanate; 4-isocyanatodiphenylmethane; 4-isocyanato-4'-diphenylmethane

> <IUPAC_NAME>
1-benzyl-4-isocyanatobenzene

> <FORMULA>
C14H11NO

> <MASS>
209.24320

> <MONOISOTOPIC_MASS>
209.08406

> <CHARGE>
0

> <SMILES>
O=C=Nc1ccc(Cc2ccccc2)cc1

> <INCHI>
InChI=1S/C14H11NO/c16-11-15-14-8-6-13(7-9-14)10-12-4-2-1-3-5-12/h1-9H,10H2

> <INCHIKEY>
AGAYZDNGCFSGLT-UHFFFAOYSA-N

> <BEILSTEIN_REGISTRY_NUMBER>
2938232

> <CAS_REGISTRY_NUMBER>
1823-37-6

> <REAXYS_REGISTRY_NUMBER>
2938232

> <CHEMIDPLUS>
1823-37-6

> <PUBMED_CITATION>
3810654; 6296214

$$$$

Marvin  02051016202D          

 26 28  0  0  0  0            999 V2000
   25.3544   -9.2203    0.0000 S   0  0  0  0  0  0  0  0  0  0  0  0
   24.6399   -9.6328    0.0000 C   0  0  1  0  0  0  0  0  0  0  0  0
   24.6399  -10.4578    0.0000 N   0  0  0  0  0  0  0  0  0  0  0  0
   25.3544  -10.8703    0.0000 C   0  0  0  0  0  0  0  0  0  0  0  0
   26.0689  -10.4578    0.0000 C   0  0  0  0  0  0  0  0  0  0  0  0
   26.0689   -9.6328    0.0000 C   0  0  0  0  0  0  0  0  0  0  0  0
   23.8149   -9.6328    0.0000 C   0  0  1  0  0  0  0  0  0  0  0  0
   23.8149  -10.4578    0.0000 C   0  0  0  0  0  0  0  0  0  0  0  0
   25.3544  -11.6953    0.0000 C   0  0  0  0  0  0  0  0  0  0  0  0
   24.6399  -12.1078    0.0000 O   0  0  0  0  0  0  0  0  0  0  0  0
   26.0689  -12.1078    0.0000 O   0  0  0  0  0  0  0  0  0  0  0  0
   23.1005   -9.2203    0.0000 N   0  0  0  0  0  0  0  0  0  0  0  0
   24.6399   -8.8078    0.0000 H   0  0  0  0  0  0  0  0  0  0  0  0
   22.3860   -9.6328    0.0000 C   0  0  0  0  0  0  0  0  0  0  0  0
   21.6715   -9.2203    0.0000 C   0  0  0  0  0  0  0  0  0  0  0  0
   22.3860  -10.4578    0.0000 O   0  0  0  0  0  0  0  0  0  0  0  0
   21.6715   -8.3953    0.0000 N   0  0  0  0  0  0  0  0  0  0  0  0
   22.3860   -7.9828    0.0000 O   0  0  0  0  0  0  0  0  0  0  0  0
   22.3860   -7.1578    0.0000 C   0  0  0  0  0  0  0  0  0  0  0  0
   20.1724   -9.3778    0.0000 N   0  0  0  0  0  0  0  0  0  0  0  0
   19.6875  -10.0453    0.0000 C   0  0  0  0  0  0  0  0  0  0  0  0
   20.1724  -10.7127    0.0000 S   0  0  0  0  0  0  0  0  0  0  0  0
   20.9571  -10.4577    0.0000 C   0  0  0  0  0  0  0  0  0  0  0  0
   20.9571   -9.6328    0.0000 C   0  0  0  0  0  0  0  0  0  0  0  0
   18.8625  -10.0453    0.0000 N   0  0  0  0  0  0  0  0  0  0  0  0
   23.2316  -11.0412    0.0000 O   0  0  0  0  0  0  0  0  0  0  0  0
  1  2  1  0  0  0  0
  2  3  1  0  0  0  0
  3  4  1  0  0  0  0
  4  5  2  0  0  0  0
  5  6  1  0  0  0  0
  1  6  1  0  0  0  0
  2  7  1  0  0  0  0
  7  8  1  0  0  0  0
  8  3  1  0  0  0  0
  4  9  1  0  0  0  0
  9 10  2  0  0  0  0
  9 11  1  0  0  0  0
  7 12  1  1  0  0  0
  2 13  1  6  0  0  0
 12 14  1  0  0  0  0
 14 15  1  0  0  0  0
 15 24  1  0  0  0  0
 14 16  2  0  0  0  0
 15 17  2  0  0  0  0
 17 18  1  0  0  0  0
 18 19  1  0  0  0  0
 20 21  2  0  0  0  0
 21 22  1  0  0  0  0
 22 23  1  0  0  0  0
 23 24  2  0  0  0  0
 20 24  1  0  0  0  0
 21 25  1  0  0  0  0
  8 26  2  0  0  0  0
M  END
> <ID>
CHEBI:553473

> <NAME>
ceftizoxime

> <DEFINITION>
A parenteral third-generation cephalosporin, bearing a 2-(2-amino-1,3-thiazol-4-yl)-2-(methoxyimino)acetyl]amino group at the 7β-position.

> <STAR>
3

> <SECONDARY_ID>
CHEBI:3511; CHEBI:112105

> <SYNONYM>
syn-7-(2-(2-Amino-4-thiazolyl)-2-methoxyiminoacetamido)-3-cephem-4-carboxylic acid; Ceftizoxime; CEFTIZOXIME; CEFIZOX; 7-[2-(2-Amino-thiazol-4-yl)-2-methoxyimino-acetylamino]-8-oxo-5-thia-1-aza-bicyclo[4.2.0]oct-2-ene-2-carboxylic acid

> <IUPAC_NAME>
7beta-{[(2Z)-2-(2-amino-1,3-thiazol-4-yl)-2-(methoxyimino)acetyl]amino}-2,3-didehydropenam-2-carboxylic acid; (6R,7R)-7-{[(2Z)-2-(2-amino-1,3-thiazol-4-yl)-2-(methoxyimino)acetyl]amino}-8-oxo-5-thia-1-azabicyclo[4.2.0]oct-2-ene-2-carboxylic acid

> <INN>
ceftizoximum; ceftizoxime; ceftizoxima

> <FORMULA>
C13H13N5O5S2

> <MASS>
383.40300

> <MONOISOTOPIC_MASS>
383.03581

> <CHARGE>
0

> <SMILES>
[H][C@]12SCC=C(N1C(=O)[C@H]2NC(=O)C(=N/OC)\c1csc(N)n1)C(O)=O

> <INCHI>
InChI=1S/C13H13N5O5S2/c1-23-17-7(5-4-25-13(14)15-5)9(19)16-8-10(20)18-6(12(21)22)2-3-24-11(8)18/h2,4,8,11H,3H2,1H3,(H2,14,15)(H,16,19)(H,21,22)/b17-7-/t8-,11-/m1/s1

> <INCHIKEY>
NNULBSISHYWZJU-LLKWHZGFSA-N

> <BEILSTEIN_REGISTRY_NUMBER>
5777502

> <CAS_REGISTRY_NUMBER>
68401-81-0

> <REAXYS_REGISTRY_NUMBER>
5777502

> <CHEMIDPLUS>
68401-81-0

> <DRUGBANK_ACCESSION>
DB01332

> <KEGG_COMPOUND_ACCESSION>
C06890

> <KEGG_DRUG_ACCESSION>
D07658

> <WIKIPEDIA_ACCESSION>
Ceftizoxime

> <PUBMED_CITATION>
11452157; 11711261; 1384868; 15716453; 22726927; 23394621; 29017833

$$$$

Marvin  01281012332D          

  9  9  0  0  0  0            999 V2000
    0.6019   -0.1582    0.0000 C   0  0  0  0  0  0  0  0  0  0  0  0
   -0.1212    0.2593    0.0000 C   0  0  0  0  0  0  0  0  0  0  0  0
    1.3144    0.2577    0.0000 C   0  0  0  0  0  0  0  0  0  0  0  0
    0.6129   -0.9833    0.0000 N   0  0  0  0  0  0  0  0  0  0  0  0
   -0.1213    1.0737    0.0000 C   0  0  0  0  0  0  0  0  0  0  0  0
    1.3073    1.0784    0.0000 C   0  0  0  0  0  0  0  0  0  0  0  0
    0.5810    1.4977    0.0000 C   0  0  0  0  0  0  0  0  0  0  0  0
    0.5655    2.3297    0.0000 O   0  0  0  0  0  0  0  0  0  0  0  0
    1.3274   -1.3958    0.0000 C   0  0  0  0  0  0  0  0  0  0  0  0
  1  2  1  0  0  0  0
  1  3  2  0  0  0  0
  1  4  1  0  0  0  0
  2  5  2  0  0  0  0
  3  6  1  0  0  0  0
  5  7  1  0  0  0  0
  7  8  1  0  0  0  0
  6  7  2  0  0  0  0
  4  9  1  0  0  0  0
M  END
> <ID>
CHEBI:55416

> <NAME>
4-methylaminophenol

> <DEFINITION>
The phenol that is the N-methyl derivative of 4-aminophenol.

> <STAR>
3

> <SYNONYM>
Paramethylaminophenol; p-Methylaminophenol; p-(Methylamino)phenol; N-Methyl-p-aminophenol; n-Methyl-p-aminophenol; N-methyl-4-hydroxyaniline; N-Methyl-4-aminophenol; Metol

> <IUPAC_NAME>
4-(methylamino)phenol

> <FORMULA>
C7H9NO

> <MASS>
123.15250

> <MONOISOTOPIC_MASS>
123.06841

> <CHARGE>
0

> <SMILES>
CNc1ccc(O)cc1

> <INCHI>
InChI=1S/C7H9NO/c1-8-6-2-4-7(9)5-3-6/h2-5,8-9H,1H3

> <INCHIKEY>
ZFIQGRISGKSVAG-UHFFFAOYSA-N

> <BEILSTEIN_REGISTRY_NUMBER>
1363740

> <CAS_REGISTRY_NUMBER>
150-75-4

> <GMELIN_REGISTRY_NUMBER>
694338

> <REAXYS_REGISTRY_NUMBER>
1363740

> <CHEMIDPLUS>
150-75-4

> <PUBMED_CITATION>
12230204; 12837535; 6163022; 6519507; 6807064; 9874021

$$$$

Marvin  02021015362D          

 12 12  0  0  0  0            999 V2000
   12.4107   -9.6931    0.0000 C   0  0  0  0  0  0  0  0  0  0  0  0
   12.4107   -8.8866    0.0000 O   0  0  0  0  0  0  0  0  0  0  0  0
   13.1506  -10.0975    0.0000 O   0  0  0  0  0  0  0  0  0  0  0  0
   11.0070   -9.7221    0.0000 N   0  0  0  0  0  0  0  0  0  0  0  0
   11.7102  -10.1292    0.0000 C   0  0  0  0  0  0  0  0  0  0  0  0
   10.2981  -10.1441    0.0000 C   0  0  0  0  0  0  0  0  0  0  0  0
   10.2981  -10.9506    0.0000 C   0  0  0  0  0  0  0  0  0  0  0  0
    9.5723   -9.7312    0.0000 C   0  0  0  0  0  0  0  0  0  0  0  0
    9.5892  -11.3725    0.0000 C   0  0  0  0  0  0  0  0  0  0  0  0
    8.8634  -10.1532    0.0000 C   0  0  0  0  0  0  0  0  0  0  0  0
    8.8718  -10.9739    0.0000 C   0  0  0  0  0  0  0  0  0  0  0  0
    8.1629  -11.3958    0.0000 O   0  0  0  0  0  0  0  0  0  0  0  0
  2  1  2  0  0  0  0
  3  1  1  0  0  0  0
  5  1  1  0  0  0  0
  5  4  1  0  0  0  0
  6  4  1  0  0  0  0
  7  6  2  0  0  0  0
  8  6  1  0  0  0  0
  9  7  1  0  0  0  0
 10  8  2  0  0  0  0
 11  9  2  0  0  0  0
 11 10  1  0  0  0  0
 12 11  1  0  0  0  0
M  END
> <ID>
CHEBI:55443

> <NAME>
N-(p-hydroxyphenyl)glycine

> <DEFINITION>
A phenol that is the N-(4-hydroxyphenyl) derivative of glycine. Synthesised by reaction of p-aminophenol with chloracetic acid, it is used as a photographic developing agent.

> <STAR>
3

> <SYNONYM>
PHPG; Photoglycine; para-hydroxyphenyl glycine; p-Hydroxyphenylglycine; p-Hydroxyphenylaminoacetic acid; p-Hydroxyphenyl glycine; p-Hydroxyanilinoacetic acid; NPHPG; N-PHPG; N-p-hydroxyphenylglycine; N-4-hydroxyphenylglycine; Hydroxyphenyl glycine; Glycin; D,L-(4-hydroxyphenyl)glycine; 4-(Carboxymethylamino)phenol

> <IUPAC_NAME>
N-(4-hydroxyphenyl)glycine

> <FORMULA>
C8H9NO3

> <MASS>
167.16200

> <MONOISOTOPIC_MASS>
167.05824

> <CHARGE>
0

> <SMILES>
OC(=O)CNc1ccc(O)cc1

> <INCHI>
InChI=1S/C8H9NO3/c10-7-3-1-6(2-4-7)9-5-8(11)12/h1-4,9-10H,5H2,(H,11,12)

> <INCHIKEY>
WRUZLCLJULHLEY-UHFFFAOYSA-N

> <BEILSTEIN_REGISTRY_NUMBER>
2096195

> <CAS_REGISTRY_NUMBER>
122-87-2

> <REAXYS_REGISTRY_NUMBER>
2096195

> <CHEMIDPLUS>
122-87-2

> <WIKIPEDIA_ACCESSION>
Glycin

> <PUBMED_CITATION>
14687482; 23758494; 7544181; 7716788

$$$$

Marvin  01261110382D          

 29 31  0  0  0  0            999 V2000
   -1.2679   -5.2425    0.0000 N   0  0  0  0  0  0  0  0  0  0  0  0
   -1.9781   -5.6467    0.0000 C   0  0  0  0  0  0  0  0  0  0  0  0
   -2.7087   -5.2124    0.0000 C   0  0  0  0  0  0  0  0  0  0  0  0
   -1.9715   -6.5108    0.0000 O   0  0  0  0  0  0  0  0  0  0  0  0
   -0.5560   -5.6594    0.0000 C   0  0  1  0  0  0  0  0  0  0  0  0
    0.2490   -6.4978    0.0000 N   0  0  0  0  0  0  0  0  0  0  0  0
    0.2490   -5.6627    0.0000 C   0  0  2  0  0  0  0  0  0  0  0  0
   -0.5560   -6.4978    0.0000 C   0  0  0  0  0  0  0  0  0  0  0  0
    0.9661   -6.9120    0.0000 C   0  0  0  0  0  0  0  0  0  0  0  0
    0.9661   -5.2517    0.0000 S   0  0  0  0  0  0  0  0  0  0  0  0
   -1.2642   -6.9544    0.0000 O   0  0  0  0  0  0  0  0  0  0  0  0
    1.6809   -6.4978    0.0000 C   0  0  0  0  0  0  0  0  0  0  0  0
    0.9661   -7.7338    0.0000 C   0  0  0  0  0  0  0  0  0  0  0  0
    1.6809   -5.6627    0.0000 C   0  0  0  0  0  0  0  0  0  0  0  0
    0.2691   -8.1735    0.0000 O   0  0  0  0  0  0  0  0  0  0  0  0
    1.6610   -8.1535    0.0000 O   0  0  0  0  0  0  0  0  0  0  0  0
    0.2490   -4.8631    0.0000 H   0  0  0  0  0  0  0  0  0  0  0  0
    2.3958   -6.9096    0.0000 C   0  0  0  0  0  0  0  0  0  0  0  0
    3.1099   -6.4966    0.0000 O   0  0  0  0  0  0  0  0  0  0  0  0
    3.8246   -6.9085    0.0000 C   0  0  0  0  0  0  0  0  0  0  0  0
    4.5387   -6.4954    0.0000 C   0  0  0  0  0  0  0  0  0  0  0  0
    3.8253   -7.7335    0.0000 O   0  0  0  0  0  0  0  0  0  0  0  0
   -3.4284   -5.6156    0.0000 S   0  0  0  0  0  0  0  0  0  0  0  0
   -4.1375   -5.1940    0.0000 C   0  0  0  0  0  0  0  0  0  0  0  0
   -4.1231   -4.3691    0.0000 C   0  0  0  0  0  0  0  0  0  0  0  0
   -4.8312   -3.9476    0.0000 C   0  0  0  0  0  0  0  0  0  0  0  0
   -5.5519   -4.3509    0.0000 N   0  0  0  0  0  0  0  0  0  0  0  0
   -5.5600   -5.1801    0.0000 C   0  0  0  0  0  0  0  0  0  0  0  0
   -4.8510   -5.5979    0.0000 C   0  0  0  0  0  0  0  0  0  0  0  0
  9 13  1  0  0  0  0
 10 14  1  0  0  0  0
 13 15  1  0  0  0  0
 13 16  2  0  0  0  0
  8  5  1  0  0  0  0
 12 14  1  0  0  0  0
  7 17  1  6  0  0  0
  2  4  2  0  0  0  0
 12 18  1  0  0  0  0
 18 19  1  0  0  0  0
  5  1  1  1  0  0  0
 19 20  1  0  0  0  0
  1  2  1  0  0  0  0
 20 21  1  0  0  0  0
  2  3  1  0  0  0  0
 20 22  2  0  0  0  0
  6  7  1  0  0  0  0
  3 23  1  0  0  0  0
  6  8  1  0  0  0  0
 23 24  1  0  0  0  0
  6  9  1  0  0  0  0
 24 25  2  0  0  0  0
  7  5  1  0  0  0  0
 25 26  1  0  0  0  0
  7 10  1  0  0  0  0
 26 27  2  0  0  0  0
  8 11  2  0  0  0  0
 27 28  1  0  0  0  0
  9 12  2  0  0  0  0
 28 29  2  0  0  0  0
 29 24  1  0  0  0  0
M  END
> <ID>
CHEBI:554446

> <NAME>
cephapirin

> <DEFINITION>
A cephalosporin with  acetoxymethyl and 2(pyridin-4-ylsulfanyl)acetamido substituents at positions 3 and 7, respectively, of the cephem skeleton. It is used (as its sodium salt) as an antibiotic, being effective against gram-negative and gram-positive organisms.

> <STAR>
3

> <SECONDARY_ID>
CHEBI:3544

> <SYNONYM>
CEPR; Cephapirine; Cefaprin; (6R,7R)-3-(acetoxymethyl)-8-oxo-7-{[(pyridin-4-ylsulfanyl)acetyl]amino}-5-thia-1-azabicyclo[4.2.0]oct-2-ene-2-carboxylic acid

> <IUPAC_NAME>
(6R,7R)-3-acetoxymethyl-7-[(pyridin-4-ylsulfanyl)acetamido]-3,4-didehydrocepham-4-carboxylic acid

> <INN>
cefapirinum; cefapirine; cefapirina; cefapirin

> <FORMULA>
C17H17N3O6S2

> <MASS>
423.46300

> <MONOISOTOPIC_MASS>
423.05588

> <CHARGE>
0

> <SMILES>
[H][C@]12SCC(COC(C)=O)=C(N1C(=O)[C@H]2NC(=O)CSc1ccncc1)C(O)=O

> <INCHI>
InChI=1S/C17H17N3O6S2/c1-9(21)26-6-10-7-28-16-13(15(23)20(16)14(10)17(24)25)19-12(22)8-27-11-2-4-18-5-3-11/h2-5,13,16H,6-8H2,1H3,(H,19,22)(H,24,25)/t13-,16-/m1/s1

> <INCHIKEY>
UQLLWWBDSUHNEB-CZUORRHYSA-N

> <BEILSTEIN_REGISTRY_NUMBER>
4031996

> <CAS_REGISTRY_NUMBER>
21593-23-7

> <REAXYS_REGISTRY_NUMBER>
4031966

> <CHEMIDPLUS>
21593-23-7

> <DRUGBANK_ACCESSION>
DB01139

> <HMDB_ACCESSION>
HMDB0030451

> <KEGG_COMPOUND_ACCESSION>
C06896

> <KEGG_DRUG_ACCESSION>
D07636

> <WIKIPEDIA_ACCESSION>
Cephapirin

> <PUBMED_CITATION>
19246140; 23948762; 24224523; 29017833; 2083978

$$$$

Marvin  01281017462D          

 12 13  0  0  0  0            999 V2000
   11.2910  -10.9210    0.0000 O   0  0  0  0  0  0  0  0  0  0  0  0
   10.7930  -10.2472    0.0000 C   0  0  0  0  0  0  0  0  0  0  0  0
   10.8076  -11.5949    0.0000 C   0  0  0  0  0  0  0  0  0  0  0  0
   11.0859  -12.3858    0.0000 O   0  0  0  0  0  0  0  0  0  0  0  0
   11.0273   -9.4562    0.0000 O   0  0  0  0  0  0  0  0  0  0  0  0
   10.0020  -11.3458    0.0000 C   0  0  0  0  0  0  0  0  0  0  0  0
   10.0020  -10.5255    0.0000 C   0  0  0  0  0  0  0  0  0  0  0  0
    9.2988  -10.1154    0.0000 C   0  0  0  0  0  0  0  0  0  0  0  0
    8.5811  -10.5255    0.0000 C   0  0  0  0  0  0  0  0  0  0  0  0
    8.5957  -11.3605    0.0000 C   0  0  0  0  0  0  0  0  0  0  0  0
    9.2988  -11.7560    0.0000 C   0  0  0  0  0  0  0  0  0  0  0  0
   10.0899  -12.1661    0.0000 C   0  0  0  0  0  0  0  0  0  0  0  0
  3  1  1  0  0  0  0
  2  1  1  0  0  0  0
  5  2  2  0  0  0  0
  7  2  1  0  0  0  0
  6  3  1  0  0  0  0
  4  3  2  0  0  0  0
  7  6  1  0  0  0  0
 11  6  1  0  0  0  0
 12  6  1  0  0  0  0
  8  7  1  0  0  0  0
  9  8  1  0  0  0  0
 10  9  1  0  0  0  0
 11 10  1  0  0  0  0
M  END
> <ID>
CHEBI:55461

> <NAME>
methylhexahydrophthalic anhydride

> <DEFINITION>
A cyclic dicarboxylic anhydride that is the cyclic anhydride of methylhexahydrophthalic acid.

> <STAR>
3

> <SYNONYM>
MHHPA; methyl-1,2-cyclohexanedicarboxylic anhydride; hexahydromethyl-1,3-isobenzofurandione

> <IUPAC_NAME>
3a-methylhexahydro-2-benzofuran-1,3-dione

> <FORMULA>
C9H12O3

> <MASS>
168.18980

> <MONOISOTOPIC_MASS>
168.07864

> <CHARGE>
0

> <SMILES>
CC12CCCCC1C(=O)OC2=O

> <INCHI>
InChI=1S/C9H12O3/c1-9-5-3-2-4-6(9)7(10)12-8(9)11/h6H,2-5H2,1H3

> <INCHIKEY>
VYKXQOYUCMREIS-UHFFFAOYSA-N

> <CAS_REGISTRY_NUMBER>
25550-51-0

> <REAXYS_REGISTRY_NUMBER>
147628

> <CHEMIDPLUS>
25550-51-0

> <PUBMED_CITATION>
10617215; 11253036; 11409596; 11758999; 11926513; 12934723; 15054537; 1789402; 19772480; 9034685; 9253641; 9348723; 9686874; 9878586

$$$$

Marvin  02021016532D          

 13 13  0  0  0  0            999 V2000
    0.9723   -0.5598    0.0000 N   0  0  0  0  0  0  0  0  0  0  0  0
    0.2579   -0.9723    0.0000 C   0  0  0  0  0  0  0  0  0  0  0  0
    0.2579   -1.7973    0.0000 C   0  0  0  0  0  0  0  0  0  0  0  0
    0.9723   -2.2098    0.0000 O   0  0  0  0  0  0  0  0  0  0  0  0
    1.6868   -1.7973    0.0000 C   0  0  0  0  0  0  0  0  0  0  0  0
    1.6868   -0.9723    0.0000 C   0  0  0  0  0  0  0  0  0  0  0  0
    0.9723    0.2652    0.0000 C   0  0  0  0  0  0  0  0  0  0  0  0
    1.6868    0.6777    0.0000 C   0  0  0  0  0  0  0  0  0  0  0  0
    2.4013    0.2652    0.0000 C   0  0  0  0  0  0  0  0  0  0  0  0
    3.1157    0.6777    0.0000 C   0  0  0  0  0  0  0  0  0  0  0  0
    1.6868    1.5027    0.0000 N   0  3  0  0  0  0  0  0  0  0  0  0
    0.9723    1.9152    0.0000 O   0  0  0  0  0  0  0  0  0  0  0  0
    2.4013    1.9152    0.0000 O   0  5  0  0  0  0  0  0  0  0  0  0
  1  2  1  0  0  0  0
  1  6  1  0  0  0  0
  2  3  1  0  0  0  0
  3  4  1  0  0  0  0
  4  5  1  0  0  0  0
  5  6  1  0  0  0  0
  1  7  1  0  0  0  0
  7  8  1  0  0  0  0
  8  9  1  0  0  0  0
  9 10  1  0  0  0  0
  8 11  1  0  0  0  0
 11 12  2  0  0  0  0
 11 13  1  0  0  0  0
M  CHG  2  11   1  13  -1
M  END
> <ID>
CHEBI:55482

> <NAME>
4-(2-nitrobutyl)morpholine

> <DEFINITION>
Morpholine substituted at nitrogen by a 2-nitrobutyl group.

> <STAR>
3

> <SYNONYM>
N-(2-Nitrobutyl)morpholine; 4-(2-nitrobutyl)-morpholine

> <IUPAC_NAME>
4-(2-nitrobutyl)morpholine

> <FORMULA>
C8H16N2O3

> <MASS>
188.22420

> <MONOISOTOPIC_MASS>
188.11609

> <CHARGE>
0

> <SMILES>
CCC(CN1CCOCC1)[N+]([O-])=O

> <INCHI>
InChI=1S/C8H16N2O3/c1-2-8(10(11)12)7-9-3-5-13-6-4-9/h8H,2-7H2,1H3

> <INCHIKEY>
GQHVWDKJTDUZRP-UHFFFAOYSA-N

> <BEILSTEIN_REGISTRY_NUMBER>
149001

> <CAS_REGISTRY_NUMBER>
2224-44-4

> <CHEMIDPLUS>
2224-44-4

> <PUBMED_CITATION>
8930473

$$$$

Marvin  02021017052D          

 20 21  0  0  0  0            999 V2000
   -1.7089    1.2670    0.0000 C   0  0  0  0  0  0  0  0  0  0  0  0
   -0.9945    0.8545    0.0000 C   0  0  0  0  0  0  0  0  0  0  0  0
   -0.2800    1.2670    0.0000 C   0  0  0  0  0  0  0  0  0  0  0  0
    0.4345    0.8545    0.0000 N   0  0  0  0  0  0  0  0  0  0  0  0
   -2.4234    0.8545    0.0000 N   0  0  0  0  0  0  0  0  0  0  0  0
    1.1489    1.2670    0.0000 C   0  0  0  0  0  0  0  0  0  0  0  0
    0.4345    0.0294    0.0000 C   0  0  0  0  0  0  0  0  0  0  0  0
    1.1489   -0.3831    0.0000 C   0  0  0  0  0  0  0  0  0  0  0  0
    1.8634    0.0294    0.0000 O   0  0  0  0  0  0  0  0  0  0  0  0
    1.8634    0.8545    0.0000 C   0  0  0  0  0  0  0  0  0  0  0  0
   -3.1379    1.2670    0.0000 C   0  0  0  0  0  0  0  0  0  0  0  0
   -3.8523    0.8545    0.0000 C   0  0  0  0  0  0  0  0  0  0  0  0
   -3.8523    0.0294    0.0000 O   0  0  0  0  0  0  0  0  0  0  0  0
   -3.1379   -0.3831    0.0000 C   0  0  0  0  0  0  0  0  0  0  0  0
   -2.4234    0.0294    0.0000 C   0  0  0  0  0  0  0  0  0  0  0  0
   -0.9945    0.0295    0.0000 N   0  3  0  0  0  0  0  0  0  0  0  0
   -1.7089   -0.3830    0.0000 O   0  0  0  0  0  0  0  0  0  0  0  0
   -0.2800   -0.3830    0.0000 O   0  5  0  0  0  0  0  0  0  0  0  0
   -0.9945    1.6795    0.0000 C   0  0  0  0  0  0  0  0  0  0  0  0
   -0.2800    2.0920    0.0000 C   0  0  0  0  0  0  0  0  0  0  0  0
  1  2  1  0  0  0  0
  2  3  1  0  0  0  0
  3  4  1  0  0  0  0
  1  5  1  0  0  0  0
  6  4  1  0  0  0  0
  4  7  1  0  0  0  0
  6 10  1  0  0  0  0
  7  8  1  0  0  0  0
  8  9  1  0  0  0  0
  9 10  1  0  0  0  0
 15  5  1  0  0  0  0
 11  5  1  0  0  0  0
 11 12  1  0  0  0  0
 12 13  1  0  0  0  0
 13 14  1  0  0  0  0
 14 15  1  0  0  0  0
  2 16  1  0  0  0  0
 16 17  2  0  0  0  0
 16 18  1  0  0  0  0
  2 19  1  0  0  0  0
 19 20  1  0  0  0  0
M  CHG  2  16   1  18  -1
M  END
> <ID>
CHEBI:55483

> <NAME>
4,4'-(ethyl-2-nitropropane-1,3-diyl)bismorpholine

> <DEFINITION>
A C-nitro compound that is a bismorpholine consisting of two morpholinomethyl groups bonded to C-1 of 1-nitropropane.

> <STAR>
3

> <SYNONYM>
4,4'-(ethyl-2-nitropropane-1,3-diyl)bismorpholine; 4,4'-(ethyl-2-nitro-1,3-propanediyl)bismorpholine; 4,4'-(ethyl-2-nitro-1,3-propanediyl)-bis morpholine; 4,4'-(2-Ethyl-2-nitrotrimethylene)dimorpholine

> <IUPAC_NAME>
4-[2-(morpholin-4-ylmethyl)-2-nitrobutyl]morpholine

> <FORMULA>
C13H25N3O4

> <MASS>
287.35530

> <MONOISOTOPIC_MASS>
287.18451

> <CHARGE>
0

> <SMILES>
CCC(CN1CCOCC1)(CN1CCOCC1)[N+]([O-])=O

> <INCHI>
InChI=1S/C13H25N3O4/c1-2-13(16(17)18,11-14-3-7-19-8-4-14)12-15-5-9-20-10-6-15/h2-12H2,1H3

> <INCHIKEY>
XPGDDCOXMUFUCB-UHFFFAOYSA-N

> <CAS_REGISTRY_NUMBER>
1854-23-5

> <REAXYS_REGISTRY_NUMBER>
8153352

> <CHEMIDPLUS>
1854-23-5

> <PUBMED_CITATION>
8930473

$$$$

Marvin  02031016112D          

 33 36  0  0  0  0            999 V2000
    6.2416   -4.1875    0.0000 S   0  0  0  0  0  0  0  0  0  0  0  0
    5.5683   -4.6742    0.0000 C   0  0  0  0  0  0  0  0  0  0  0  0
    5.8250   -5.4625    0.0000 C   0  0  0  0  0  0  0  0  0  0  0  0
    6.6541   -5.4625    0.0000 N   0  0  0  0  0  0  0  0  0  0  0  0
    6.9109   -4.6742    0.0000 N   0  0  0  0  0  0  0  0  0  0  0  0
    1.1833   -3.4416    0.0000 C   0  0  1  0  0  0  0  0  0  0  0  0
    1.1833   -4.2666    0.0000 C   0  0  0  0  0  0  0  0  0  0  0  0
   -1.3650   -0.9374    0.0000 S   0  0  0  0  0  0  0  0  0  0  0  0
   -1.6207   -1.7280    0.0000 C   0  0  0  0  0  0  0  0  0  0  0  0
   -0.9477   -2.2122    0.0000 C   0  0  0  0  0  0  0  0  0  0  0  0
   -0.2788   -1.7223    0.0000 N   0  0  0  0  0  0  0  0  0  0  0  0
   -0.5375   -0.9346    0.0000 C   0  0  0  0  0  0  0  0  0  0  0  0
   -0.1292   -0.2166    0.0000 N   0  0  0  0  0  0  0  0  0  0  0  0
   -0.9542   -3.0333    0.0000 C   0  0  0  0  0  0  0  0  0  0  0  0
   -1.6708   -3.4416    0.0000 N   0  0  0  0  0  0  0  0  0  0  0  0
   -0.2417   -3.4458    0.0000 C   0  0  0  0  0  0  0  0  0  0  0  0
   -1.6750   -4.2666    0.0000 O   0  0  0  0  0  0  0  0  0  0  0  0
   -0.9625   -4.6791    0.0000 C   0  0  0  0  0  0  0  0  0  0  0  0
   -0.2458   -4.2708    0.0000 O   0  0  0  0  0  0  0  0  0  0  0  0
    0.4708   -3.0291    0.0000 N   0  0  0  0  0  0  0  0  0  0  0  0
    0.4667   -4.6750    0.0000 O   0  0  0  0  0  0  0  0  0  0  0  0
    2.0083   -3.4416    0.0000 C   0  0  2  0  0  0  0  0  0  0  0  0
    2.0083   -4.2666    0.0000 N   0  0  0  0  0  0  0  0  0  0  0  0
    2.7189   -4.6769    0.0000 C   0  0  0  0  0  0  0  0  0  0  0  0
    3.4339   -4.2666    0.0000 C   0  0  0  0  0  0  0  0  0  0  0  0
    3.4339   -3.4416    0.0000 C   0  0  0  0  0  0  0  0  0  0  0  0
    2.7189   -3.0269    0.0000 S   0  0  0  0  0  0  0  0  0  0  0  0
    2.0042   -2.6166    0.0000 H   0  0  0  0  0  0  0  0  0  0  0  0
    2.7125   -5.5000    0.0000 C   0  0  0  0  0  0  0  0  0  0  0  0
    1.9958   -5.9083    0.0000 O   0  0  0  0  0  0  0  0  0  0  0  0
    3.4250   -5.9125    0.0000 O   0  0  0  0  0  0  0  0  0  0  0  0
    4.1458   -4.6791    0.0000 C   0  0  0  0  0  0  0  0  0  0  0  0
    4.8583   -4.2625    0.0000 S   0  0  0  0  0  0  0  0  0  0  0  0
 14 16  1  0  0  0  0
  9 10  2  0  0  0  0
 15 17  1  0  0  0  0
  1  2  1  0  0  0  0
 17 18  1  0  0  0  0
  3  4  1  0  0  0  0
 16 19  2  0  0  0  0
  4  5  2  0  0  0  0
 16 20  1  0  0  0  0
  6 20  1  1  0  0  0
  5  1  1  0  0  0  0
  7 21  2  0  0  0  0
 22 23  1  0  0  0  0
  6  7  1  0  0  0  0
  8  9  1  0  0  0  0
 10 11  1  0  0  0  0
 11 12  2  0  0  0  0
 12  8  1  0  0  0  0
  2  3  2  0  0  0  0
 22 27  1  0  0  0  0
 23 24  1  0  0  0  0
 24 25  2  0  0  0  0
 25 26  1  0  0  0  0
 26 27  1  0  0  0  0
 12 13  1  0  0  0  0
 22 28  1  6  0  0  0
 24 29  1  0  0  0  0
 10 14  1  0  0  0  0
 29 30  2  0  0  0  0
  7 23  1  0  0  0  0
 29 31  1  0  0  0  0
 14 15  2  0  0  0  0
 25 32  1  0  0  0  0
 22  6  1  0  0  0  0
 32 33  1  0  0  0  0
 33  2  1  0  0  0  0
M  END
> <ID>
CHEBI:55488

> <NAME>
cefuzonam

> <DEFINITION>
A second generation cephalosporin antibiotic.

> <STAR>
3

> <SYNONYM>
cefuzoname

> <IUPAC_NAME>
7beta-{[(2Z)-2-(2-amino-1,3-thiazol-4-yl)-2-(methoxyimino)acetyl]amino}-3-[(1,2,3-thiadiazol-5-ylsulfanyl)methyl]-3,4-didehydrocepham-4-carboxylic acid; (6R,7R)-7-{[(2Z)-2-(2-amino-1,3-thiazol-4-yl)-2-(methoxyimino)acetyl]amino}-8-oxo-3-[(1,2,3-thiadiazol-5-ylsulfanyl)methyl]-5-thia-1-azabicyclo[4.2.0]oct-2-ene-2-carboxylic acid

> <INN>
cefuzonamum; cefuzonam

> <FORMULA>
C16H15N7O5S4

> <MASS>
513.59400

> <MONOISOTOPIC_MASS>
513.00175

> <CHARGE>
0

> <SMILES>
[H][C@]12SCC(CSc3cnns3)=C(N1C(=O)[C@H]2NC(=O)C(=N/OC)\c1csc(N)n1)C(O)=O

> <INCHI>
InChI=1S/C16H15N7O5S4/c1-28-21-9(7-5-31-16(17)19-7)12(24)20-10-13(25)23-11(15(26)27)6(4-30-14(10)23)3-29-8-2-18-22-32-8/h2,5,10,14H,3-4H2,1H3,(H2,17,19)(H,20,24)(H,26,27)/b21-9-/t10-,14-/m1/s1

> <INCHIKEY>
CXHKZHZLDMQGFF-ZSDSSEDPSA-N

> <BEILSTEIN_REGISTRY_NUMBER>
6030288

> <CAS_REGISTRY_NUMBER>
82219-78-1

> <REAXYS_REGISTRY_NUMBER>
6030288

> <CHEMIDPLUS>
82219-78-1

> <KEGG_DRUG_ACCESSION>
D03432

> <WIKIPEDIA_ACCESSION>
Cefuzonam

> <PUBMED_CITATION>
2041152; 2042464; 3329242; 3530123; 3599391; 7933531

$$$$

Marvin  02091010022D          

 34 37  0  0  0  0            999 V2000
   19.6254   -0.1331    0.0000 S   0  0  0  0  0  0  0  0  0  0  0  0
   18.9109   -0.5456    0.0000 C   0  0  1  0  0  0  0  0  0  0  0  0
   18.9109   -1.3706    0.0000 N   0  0  0  0  0  0  0  0  0  0  0  0
   19.6254   -1.7831    0.0000 C   0  0  0  0  0  0  0  0  0  0  0  0
   20.3399   -1.3706    0.0000 C   0  0  0  0  0  0  0  0  0  0  0  0
   20.3399   -0.5456    0.0000 C   0  0  0  0  0  0  0  0  0  0  0  0
   18.0859   -0.5456    0.0000 C   0  0  1  0  0  0  0  0  0  0  0  0
   18.0859   -1.3706    0.0000 C   0  0  0  0  0  0  0  0  0  0  0  0
   19.6254   -2.6081    0.0000 C   0  0  0  0  0  0  0  0  0  0  0  0
   18.9109   -3.0206    0.0000 O   0  0  0  0  0  0  0  0  0  0  0  0
   20.3399   -3.0206    0.0000 O   0  0  0  0  0  0  0  0  0  0  0  0
   17.3715   -0.1331    0.0000 N   0  0  0  0  0  0  0  0  0  0  0  0
   18.9109    0.2794    0.0000 H   0  0  0  0  0  0  0  0  0  0  0  0
   16.6570   -0.5456    0.0000 C   0  0  0  0  0  0  0  0  0  0  0  0
   15.9425   -0.1331    0.0000 C   0  0  0  0  0  0  0  0  0  0  0  0
   16.6570   -1.3706    0.0000 O   0  0  0  0  0  0  0  0  0  0  0  0
   15.9425    0.6919    0.0000 N   0  0  0  0  0  0  0  0  0  0  0  0
   16.6570    1.1044    0.0000 O   0  0  0  0  0  0  0  0  0  0  0  0
   16.6570    1.9294    0.0000 C   0  0  0  0  0  0  0  0  0  0  0  0
   14.4434   -0.2906    0.0000 N   0  0  0  0  0  0  0  0  0  0  0  0
   13.9585   -0.9581    0.0000 C   0  0  0  0  0  0  0  0  0  0  0  0
   14.4434   -1.6255    0.0000 S   0  0  0  0  0  0  0  0  0  0  0  0
   15.2281   -1.3705    0.0000 C   0  0  0  0  0  0  0  0  0  0  0  0
   15.2281   -0.5456    0.0000 C   0  0  0  0  0  0  0  0  0  0  0  0
   13.1335   -0.9581    0.0000 N   0  0  0  0  0  0  0  0  0  0  0  0
   17.5026   -1.9540    0.0000 O   0  0  0  0  0  0  0  0  0  0  0  0
   21.0544   -1.7831    0.0000 C   0  0  0  0  0  0  0  0  0  0  0  0
   21.7689   -1.3706    0.0000 S   0  0  0  0  0  0  0  0  0  0  0  0
   23.2680   -1.5282    0.0000 N   0  0  0  0  0  0  0  0  0  0  0  0
   22.4833   -1.7831    0.0000 C   0  0  0  0  0  0  0  0  0  0  0  0
   22.4833   -2.6081    0.0000 N   0  0  0  0  0  0  0  0  0  0  0  0
   23.2680   -2.8630    0.0000 N   0  0  0  0  0  0  0  0  0  0  0  0
   23.7529   -2.1956    0.0000 N   0  0  0  0  0  0  0  0  0  0  0  0
   23.4815   -0.7313    0.0000 C   0  0  0  0  0  0  0  0  0  0  0  0
  1  2  1  0  0  0  0
  2  3  1  0  0  0  0
  3  4  1  0  0  0  0
  4  5  2  0  0  0  0
  5  6  1  0  0  0  0
  1  6  1  0  0  0  0
  2  7  1  0  0  0  0
  7  8  1  0  0  0  0
  8  3  1  0  0  0  0
  4  9  1  0  0  0  0
  9 10  2  0  0  0  0
  9 11  1  0  0  0  0
  7 12  1  1  0  0  0
  2 13  1  6  0  0  0
 12 14  1  0  0  0  0
 14 15  1  0  0  0  0
 15 24  1  0  0  0  0
 14 16  2  0  0  0  0
 15 17  2  0  0  0  0
 17 18  1  0  0  0  0
 18 19  1  0  0  0  0
 20 21  2  0  0  0  0
 21 22  1  0  0  0  0
 22 23  1  0  0  0  0
 23 24  2  0  0  0  0
 20 24  1  0  0  0  0
 21 25  1  0  0  0  0
  8 26  2  0  0  0  0
  5 27  1  0  0  0  0
 27 28  1  0  0  0  0
 28 30  1  0  0  0  0
 29 30  1  0  0  0  0
 30 31  2  0  0  0  0
 31 32  1  0  0  0  0
 32 33  2  0  0  0  0
 29 33  1  0  0  0  0
 29 34  1  0  0  0  0
M  END
> <ID>
CHEBI:55490

> <NAME>
cefmenoxime

> <DEFINITION>
A third-generation cephalosporin antibiotic, bearing a 2-(2-amino-1,3-thiazol-4-yl)-2-(methoxyimino)acetyl]amino group at the 7β-position and a [(1-methyl-1H-tetrazol-5-yl)sulfanyl]methyl group at the 3-position.

> <STAR>
3

> <SYNONYM>
CMX; (6R,7R)-7-[[(2E)-2-(2-amino-1,3-thiazol-4-yl)-2-methoxyiminoacetyl]amino]-3-[(1-methyltetrazol-5-yl)sulfanylmethyl]-8-oxo-5-thia-1-azabicyclo[4.2.0]oct-2-ene-2-carboxylic acid (IUPAC); (6R,7R)-7-((Z)-2-(2-Amino-4-thiazolyl)-2-methoxyiminoacetamido)-3-((1-methyl-1H-5-tetraazolylthio)methyl)-8-oxo-5-thia-1-azabicyclo(4.2.0)oct-2-en-2-carbonsaeure

> <IUPAC_NAME>
7beta-{[(2Z)-2-(2-amino-1,3-thiazol-4-yl)-2-(methoxyimino)acetyl]amino}-3-{[(1-methyl-1H-tetrazol-5-yl)sulfanyl]methyl}-3,4-didehydrocepham-4-carboxylic acid; (6R,7R)-7-{[(2Z)-2-(2-amino-1,3-thiazol-4-yl)-2-(methoxyimino)acetyl]amino}-3-{[(1-methyl-1H-tetrazol-5-yl)sulfanyl]methyl}-8-oxo-5-thia-1-azabicyclo[4.2.0]oct-2-ene-2-carboxylic acid

> <INN>
cefmenoximum; cefmenoxime; cefmenoxima

> <FORMULA>
C16H17N9O5S3

> <MASS>
511.55800

> <MONOISOTOPIC_MASS>
511.05148

> <CHARGE>
0

> <SMILES>
[H][C@]12SCC(CSc3nnnn3C)=C(N1C(=O)[C@H]2NC(=O)C(=N/OC)\c1csc(N)n1)C(O)=O

> <INCHI>
InChI=1S/C16H17N9O5S3/c1-24-16(20-22-23-24)33-4-6-3-31-13-9(12(27)25(13)10(6)14(28)29)19-11(26)8(21-30-2)7-5-32-15(17)18-7/h5,9,13H,3-4H2,1-2H3,(H2,17,18)(H,19,26)(H,28,29)/b21-8-/t9-,13-/m1/s1

> <INCHIKEY>
HJJDBAOLQAWBMH-YCRCPZNHSA-N

> <BEILSTEIN_REGISTRY_NUMBER>
5787828

> <CAS_REGISTRY_NUMBER>
65085-01-0

> <REAXYS_REGISTRY_NUMBER>
5787828

> <CHEMIDPLUS>
65085-01-0

> <DRUGBANK_ACCESSION>
DB00267

> <KEGG_DRUG_ACCESSION>
D01739

> <WIKIPEDIA_ACCESSION>
Cefmenoxime

> <PUBMED_CITATION>
1384868; 28543395; 29017833; 6097123; 6269488; 6287933; 6301776; 6305265; 6307136; 7816419; 8193431

$$$$

Marvin  02101011202D          

 23 23  0  0  0  0            999 V2000
   -3.9482    1.1491    0.0000 C   0  0  0  0  0  0  0  0  0  0  0  0
   -4.6627    0.7366    0.0000 C   0  0  0  0  0  0  0  0  0  0  0  0
   -4.6627   -0.0884    0.0000 C   0  0  0  0  0  0  0  0  0  0  0  0
   -3.9482   -0.5009    0.0000 C   0  0  0  0  0  0  0  0  0  0  0  0
   -3.2337   -0.0884    0.0000 C   0  0  0  0  0  0  0  0  0  0  0  0
   -3.2337    0.7366    0.0000 C   0  0  0  0  0  0  0  0  0  0  0  0
   -3.9482    1.9741    0.0000 O   0  0  0  0  0  0  0  0  0  0  0  0
   -2.5193    1.1491    0.0000 O   0  0  0  0  0  0  0  0  0  0  0  0
   -2.5193   -0.5009    0.0000 C   0  0  0  0  0  0  0  0  0  0  0  0
   -1.8048   -0.0884    0.0000 C   0  0  0  0  0  0  0  0  0  0  0  0
   -1.0903   -0.5009    0.0000 C   0  0  0  0  0  0  0  0  0  0  0  0
   -0.3759   -0.0884    0.0000 C   0  0  0  0  0  0  0  0  0  0  0  0
    0.3386   -0.5009    0.0000 C   0  0  0  0  0  0  0  0  0  0  0  0
    1.0531   -0.0884    0.0000 C   0  0  0  0  0  0  0  0  0  0  0  0
    1.7676   -0.5009    0.0000 C   0  0  0  0  0  0  0  0  0  0  0  0
    2.4820   -0.0884    0.0000 C   0  0  0  0  0  0  0  0  0  0  0  0
    3.1965   -0.5009    0.0000 C   0  0  0  0  0  0  0  0  0  0  0  0
    3.9110   -0.0884    0.0000 C   0  0  0  0  0  0  0  0  0  0  0  0
    4.7360   -0.0884    0.0000 C   0  0  0  0  0  0  0  0  0  0  0  0
    5.4504   -0.5009    0.0000 C   0  0  0  0  0  0  0  0  0  0  0  0
    6.1649   -0.0884    0.0000 C   0  0  0  0  0  0  0  0  0  0  0  0
    6.8794   -0.5009    0.0000 C   0  0  0  0  0  0  0  0  0  0  0  0
    7.5938   -0.0884    0.0000 C   0  0  0  0  0  0  0  0  0  0  0  0
  1  2  1  0  0  0  0
  1  6  2  0  0  0  0
  2  3  2  0  0  0  0
  3  4  1  0  0  0  0
  4  5  2  0  0  0  0
  5  6  1  0  0  0  0
  1  7  1  0  0  0  0
  6  8  1  0  0  0  0
  5  9  1  0  0  0  0
  9 10  1  0  0  0  0
 10 11  1  0  0  0  0
 11 12  1  0  0  0  0
 12 13  1  0  0  0  0
 13 14  1  0  0  0  0
 14 15  1  0  0  0  0
 15 16  1  0  0  0  0
 16 17  1  0  0  0  0
 17 18  1  0  0  0  0
 18 19  2  0  0  0  0
 19 20  1  0  0  0  0
 20 21  1  0  0  0  0
 21 22  1  0  0  0  0
 22 23  1  0  0  0  0
M  END
> <ID>
CHEBI:55497

> <NAME>
litreol

> <DEFINITION>
Catechol carrying a pentadecenyl substituent at position 3.

> <STAR>
3

> <SYNONYM>
3-(Pentadec-10-enyl)catechol; 3-(10'Z-pentadecenyl)catechol; (Z)-3-(10-Pentadecenyl)-1,2-benzenediol

> <IUPAC_NAME>
3-[(10Z)-pentadec-10-en-1-yl]benzene-1,2-diol

> <FORMULA>
C21H34O2

> <MASS>
318.49350

> <MONOISOTOPIC_MASS>
318.25588

> <CHARGE>
0

> <SMILES>
CCCC\C=C/CCCCCCCCCc1cccc(O)c1O

> <INCHI>
InChI=1S/C21H34O2/c1-2-3-4-5-6-7-8-9-10-11-12-13-14-16-19-17-15-18-20(22)21(19)23/h5-6,15,17-18,22-23H,2-4,7-14,16H2,1H3/b6-5-

> <INCHIKEY>
WXZPKABXYFJVLD-WAYWQWQTSA-N

> <CAS_REGISTRY_NUMBER>
83532-37-0

> <REAXYS_REGISTRY_NUMBER>
7816939

> <CHEMIDPLUS>
83532-37-0

> <PUBMED_CITATION>
19007765; 3703987; 9831807

$$$$

Marvin  03021014172D          

 18 19  0  0  0  0            999 V2000
   14.3896  -10.2535    0.0000 C   0  0  0  0  0  0  0  0  0  0  0  0
   15.1046   -9.8342    0.0000 S   0  0  0  0  0  0  0  0  0  0  0  0
   14.3930  -11.0785    0.0000 C   0  0  0  0  0  0  0  0  0  0  0  0
   13.6746   -9.8410    0.0000 C   0  0  0  0  0  0  0  0  0  0  0  0
   15.8161  -10.2467    0.0000 N   0  0  0  0  0  0  0  0  0  0  0  0
   14.5134   -9.2499    0.0000 O   0  0  0  0  0  0  0  0  0  0  0  0
   15.6855   -9.2499    0.0000 O   0  0  0  0  0  0  0  0  0  0  0  0
   13.6781  -11.4910    0.0000 C   0  0  0  0  0  0  0  0  0  0  0  0
   12.9598  -10.2570    0.0000 C   0  0  0  0  0  0  0  0  0  0  0  0
   16.5276   -9.8308    0.0000 C   0  0  0  0  0  0  0  0  0  0  0  0
   12.9631  -11.0820    0.0000 C   0  0  0  0  0  0  0  0  0  0  0  0
   17.2391  -10.2433    0.0000 O   0  0  0  0  0  0  0  0  0  0  0  0
   16.7029   -9.0298    0.0000 N   0  0  0  0  0  0  0  0  0  0  0  0
   12.2413  -11.4875    0.0000 N   0  0  0  0  0  0  0  0  0  0  0  0
   17.8510   -9.6932    0.0000 C   0  0  0  0  0  0  0  0  0  0  0  0
   17.5141   -9.0263    0.0000 C   0  0  0  0  0  0  0  0  0  0  0  0
   18.6759   -9.6898    0.0000 C   0  0  0  0  0  0  0  0  0  0  0  0
   17.9254   -8.2278    0.0000 C   0  0  0  0  0  0  0  0  0  0  0  0
  1  2  1  0  0  0  0
  1  3  1  0  0  0  0
  1  4  2  0  0  0  0
  2  5  1  0  0  0  0
  2  6  2  0  0  0  0
  2  7  2  0  0  0  0
  3  8  2  0  0  0  0
  4  9  1  0  0  0  0
  5 10  1  0  0  0  0
  8 11  1  0  0  0  0
 10 12  1  0  0  0  0
 10 13  2  0  0  0  0
 11 14  1  0  0  0  0
 12 15  1  0  0  0  0
 13 16  1  0  0  0  0
 15 17  1  0  0  0  0
  9 11  2  0  0  0  0
 15 16  2  0  0  0  0
 16 18  1  0  0  0  0
M  END
> <ID>
CHEBI:55548

> <NAME>
sulfamoxole

> <DEFINITION>
A sulfonamide antibiotic in which 4-aminobenzenesulfonic acid and 4,5-dimethyl-1,3-oxazol-2-amine have combined to form the sulfonamide bond.

> <STAR>
3

> <SYNONYM>
Sulphamoxole; Sulfadimethyloxazole; p-Aminobenzenesulfonyl-2-amino-4,5-dimethyloxazole; Oxasulfa; N1-(4,5-Dimethyl-2-oxazolyl)sulfanilamide; N(sup 1)-(4,5-Dimethyl-2-oxazolyl)sulfanilamide; 4-Amino-N-(4,5-dimethyl-2-oxazolyl)benzenesulfonamide; 4,5-Dimethyl-2-sulfanilamidooxazole; 2-(p-Aminobenzolsulfonamido)-4,5-dimethyloxazol; 2-(p-Aminobenzenesulfonamido)-4,5-dimethyloxazole

> <IUPAC_NAME>
4-amino-N-(4,5-dimethyl-1,3-oxazol-2-yl)benzenesulfonamide

> <INN>
sulfamoxolum; sulfamoxole; sulfamoxol

> <FORMULA>
C11H13N3O3S

> <MASS>
267.30400

> <MONOISOTOPIC_MASS>
267.06776

> <CHARGE>
0

> <SMILES>
Cc1nc(NS(=O)(=O)c2ccc(N)cc2)oc1C

> <INCHI>
InChI=1S/C11H13N3O3S/c1-7-8(2)17-11(13-7)14-18(15,16)10-5-3-9(12)4-6-10/h3-6H,12H2,1-2H3,(H,13,14)

> <INCHIKEY>
CYFLXLSBHQBMFT-UHFFFAOYSA-N

> <BEILSTEIN_REGISTRY_NUMBER>
248434

> <CAS_REGISTRY_NUMBER>
729-99-7

> <CHEMIDPLUS>
729-99-7

> <DRUGBANK_ACCESSION>
DB08798

> <KEGG_DRUG_ACCESSION>
D02516

> <NIST_CHEMISTRY_WEBBOOK>
729-99-7

> <PUBMED_CITATION>
13882073; 13888264; 3237218; 3876325; 9886437

$$$$

Ketcher 07231514502D 1   1.00000     0.00000     0

 17 18  0     0  0            999 V2000
   20.0123  -13.1687    0.0000 C   0  0  0  0  0  0  0  0  0  0  0  0
   20.0123  -12.1736    0.0000 C   0  0  0  0  0  0  0  0  0  0  0  0
   19.1438  -11.6725    0.0000 C   0  0  0  0  0  0  0  0  0  0  0  0
   18.2753  -12.1736    0.0000 C   0  0  0  0  0  0  0  0  0  0  0  0
   18.2753  -13.1687    0.0000 C   0  0  0  0  0  0  0  0  0  0  0  0
   19.1438  -13.6697    0.0000 C   0  0  0  0  0  0  0  0  0  0  0  0
   19.1438  -14.6718    0.0000 Cl  0  0  0  0  0  0  0  0  0  0  0  0
   19.1438  -10.6705    0.0000 O   0  0  0  0  0  0  0  0  0  0  0  0
   17.4137  -11.6725    0.0000 S   0  0  0  0  0  0  0  0  0  0  0  0
   14.8152  -13.1620    0.0000 C   0  0  0  0  0  0  0  0  0  0  0  0
   14.8152  -12.1670    0.0000 C   0  0  0  0  0  0  0  0  0  0  0  0
   15.6837  -11.6659    0.0000 C   0  0  0  0  0  0  0  0  0  0  0  0
   16.5522  -12.1670    0.0000 C   0  0  0  0  0  0  0  0  0  0  0  0
   16.5522  -13.1620    0.0000 C   0  0  0  0  0  0  0  0  0  0  0  0
   15.6837  -13.6631    0.0000 C   0  0  0  0  0  0  0  0  0  0  0  0
   15.6837  -14.6652    0.0000 Cl  0  0  0  0  0  0  0  0  0  0  0  0
   15.6837  -10.6638    0.0000 O   0  0  0  0  0  0  0  0  0  0  0  0
  4  9  1  0     0  0
  4  5  1  0     0  0
  2  3  1  0     0  0
 10 11  2  0     0  0
  5  6  2  0     0  0
 11 12  1  0     0  0
  6  1  1  0     0  0
 12 13  2  0     0  0
  1  2  2  0     0  0
 13 14  1  0     0  0
  6  7  1  0     0  0
 14 15  2  0     0  0
 15 10  1  0     0  0
  3  4  2  0     0  0
 15 16  1  0     0  0
  3  8  1  0     0  0
 12 17  1  0     0  0
 13  9  1  0     0  0
M  END
> <ID>
CHEBI:556580

> <NAME>
fenticlor

> <DEFINITION>
An aryl sulfide having two 5-chloro-2-hydroxyphenyl groups attached to sulfur; an antiinfective drug mostly used in veterinary medicine.

> <STAR>
3

> <SYNONYM>
Phentichlorum; Fentichlor; Bis(2-hydroxy-5-chlorophenyl)sulfide; Bis(2-hydroxy-5-chlorophenyl) sulfide; 5,5'-Dichloro-2,2'-dihydroxydiphenyl sulfide; 4,4'-dichloro-2,2'-thiodiphenol; 2,2'-Thiobis4-chlorophenol; 2,2'-Thiobis(4-chlorophenol); 2,2'-Dihydroxy-5,5'-dichlorophenyl sulfide; 2,2'-Dihydroxy-5,5'-dichlorodiphenyl sulfide

> <IUPAC_NAME>
2,2'-sulfanediylbis(4-chlorophenol)

> <INN>
fenticlorum; fenticloro; fenticlor; fenticlor

> <FORMULA>
C12H8Cl2O2S

> <MASS>
287.16200

> <MONOISOTOPIC_MASS>
285.96221

> <CHARGE>
0

> <SMILES>
Oc1ccc(Cl)cc1Sc1cc(Cl)ccc1O

> <INCHI>
InChI=1S/C12H8Cl2O2S/c13-7-1-3-9(15)11(5-7)17-12-6-8(14)2-4-10(12)16/h1-6,15-16H

> <INCHIKEY>
ANUSOIHIIPAHJV-UHFFFAOYSA-N

> <BEILSTEIN_REGISTRY_NUMBER>
2057140

> <CAS_REGISTRY_NUMBER>
97-24-5

> <REAXYS_REGISTRY_NUMBER>
2057140

> <CHEMIDPLUS>
97-24-5

> <KEGG_DRUG_ACCESSION>
D04164

> <NIST_CHEMISTRY_WEBBOOK>
97-24-5

> <PUBMED_CITATION>
23474448; 2970943; 3679565; 6210158

$$$$

Ketcher 02171712502D 1   1.00000     0.00000     0

 12 13  0     0  0            999 V2000
   14.7731  -23.2013    0.0000 C   0  0  0  0  0  0  0  0  0  0  0  0
   14.7718  -22.2021    0.0000 C   0  0  0  0  0  0  0  0  0  0  0  0
   15.6350  -21.7035    0.0000 C   0  0  0  0  0  0  0  0  0  0  0  0
   15.6328  -23.6997    0.0000 C   0  0  0  0  0  0  0  0  0  0  0  0
   16.4968  -23.2057    0.0000 C   0  0  0  0  0  0  0  0  0  0  0  0
   16.4953  -22.1996    0.0000 C   0  0  0  0  0  0  0  0  0  0  0  0
   17.3611  -21.6981    0.0000 C   0  0  0  0  0  0  0  0  0  0  0  0
   18.2338  -22.1971    0.0000 C   0  0  0  0  0  0  0  0  0  0  0  0
   18.2353  -23.2031    0.0000 C   0  0  0  0  0  0  0  0  0  0  0  0
   17.3640  -23.7103    0.0000 O   0  0  0  0  0  0  0  0  0  0  0  0
   19.0993  -23.6993    0.0000 O   0  0  0  0  0  0  0  0  0  0  0  0
   13.9087  -21.7047    0.0000 C   0  0  0  0  0  0  0  0  0  0  0  0
  2  3  1  0     0  0
  3  6  2  0     0  0
  1  2  2  0     0  0
  5  4  2  0     0  0
  4  1  1  0     0  0
  5 10  1  0     0  0
  6  7  1  0     0  0
  7  8  2  0     0  0
  8  9  1  0     0  0
  9 10  1  0     0  0
  5  6  1  0     0  0
  9 11  2  0     0  0
  2 12  1  0     0  0
M  END
> <ID>
CHEBI:563586

> <NAME>
6-methylcoumarin

> <DEFINITION>
A member of the class of coumarins that is coumarin in which the hydrogen at position 6 is replaced by a methyl group.

> <STAR>
3

> <SYNONYM>
Methyl coumarin; 6-Methylcoumarinic anhydride; 6-Methylbenzopyrone; 6-Methyl-cis-O-coumarinic lactone; 6-methyl-2H-1-benzopyran-2-one; 6-Methyl-1,2-benzopyrone; 5-Methyl-2-hydroxyphenylpropenoic acid lactone

> <IUPAC_NAME>
6-methyl-2H-chromen-2-one

> <FORMULA>
C10H8O2

> <MASS>
160.170

> <MONOISOTOPIC_MASS>
160.05243

> <CHARGE>
0

> <SMILES>
C1=C(C=C2C=CC(OC2=C1)=O)C

> <INCHI>
InChI=1S/C10H8O2/c1-7-2-4-9-8(6-7)3-5-10(11)12-9/h2-6H,1H3

> <INCHIKEY>
FXFYOPQLGGEACP-UHFFFAOYSA-N

> <BEILSTEIN_REGISTRY_NUMBER>
4222

> <CAS_REGISTRY_NUMBER>
92-48-8

> <REAXYS_REGISTRY_NUMBER>
4222

> <CHEMIDPLUS>
92-48-8

> <HMDB_ACCESSION>
HMDB0032394

> <NIST_CHEMISTRY_WEBBOOK>
92-48-8

> <PUBMED_CITATION>
16242086; 16867823; 20702180; 4060155; 718225; 7364969; 7398262; 743874; 9207207

$$$$

Marvin  03050911212D          

 28 31  0  0  1  0            999 V2000
    9.7633   -3.9327    0.0000 C   0  0  2  0  0  0  0  0  0  0  0  0
    9.7633   -4.7577    0.0000 C   0  0  0  0  0  0  0  0  0  0  0  0
   10.5883   -3.9327    0.0000 C   0  0  2  0  0  0  0  0  0  0  0  0
   10.5883   -4.7577    0.0000 N   0  0  0  0  0  0  0  0  0  0  0  0
   11.3730   -5.0126    0.0000 C   0  0  2  0  0  0  0  0  0  0  0  0
   11.8579   -4.3452    0.0000 C   0  0  0  0  0  0  0  0  0  0  0  0
   11.3730   -3.6778    0.0000 S   0  0  0  0  0  0  0  0  0  0  0  0
   12.5767   -4.7502    0.0000 C   0  0  0  0  0  0  0  0  0  0  0  0
   12.5767   -3.9402    0.0000 C   0  0  0  0  0  0  0  0  0  0  0  0
   11.6280   -5.7973    0.0000 C   0  0  0  0  0  0  0  0  0  0  0  0
   12.4349   -5.9688    0.0000 O   0  0  0  0  0  0  0  0  0  0  0  0
   11.0758   -6.4104    0.0000 O   0  0  0  0  0  0  0  0  0  0  0  0
    9.0488   -3.5202    0.0000 N   0  0  0  0  0  0  0  0  0  0  0  0
    9.1800   -5.3411    0.0000 O   0  0  0  0  0  0  0  0  0  0  0  0
   10.5883   -3.1077    0.0000 H   0  0  0  0  0  0  0  0  0  0  0  0
    7.7793   -3.1076    0.0000 C   0  0  1  0  0  0  0  0  0  0  0  0
    8.2643   -2.4402    0.0000 N   0  0  0  0  0  0  0  0  0  0  0  0
    8.2641   -3.7751    0.0000 C   0  0  0  0  0  0  0  0  0  0  0  0
    9.0488   -2.6952    0.0000 C   0  0  0  0  0  0  0  0  0  0  0  0
    8.0313   -4.4431    0.0000 O   0  0  0  0  0  0  0  0  0  0  0  0
    9.7461   -2.4589    0.0000 C   0  0  0  0  0  0  0  0  0  0  0  0
    6.9543   -3.1075    0.0000 C   0  0  0  0  0  0  0  0  0  0  0  0
    6.5416   -3.8219    0.0000 C   0  0  0  0  0  0  0  0  0  0  0  0
    6.5418   -2.3929    0.0000 C   0  0  0  0  0  0  0  0  0  0  0  0
    5.7166   -3.8217    0.0000 C   0  0  0  0  0  0  0  0  0  0  0  0
    5.7168   -2.3928    0.0000 C   0  0  0  0  0  0  0  0  0  0  0  0
    5.3042   -3.1072    0.0000 C   0  0  0  0  0  0  0  0  0  0  0  0
    9.2623   -1.8983    0.0000 C   0  0  0  0  0  0  0  0  0  0  0  0
  1 13  1  1  0  0  0
  1  2  1  0  0  0  0
  2 14  2  0  0  0  0
  2  4  1  0  0  0  0
  4  5  1  0  0  0  0
  3  1  1  0  0  0  0
  3  4  1  0  0  0  0
  3  7  1  0  0  0  0
  5  6  1  0  0  0  0
  6  7  1  0  0  0  0
  6  8  1  0  0  0  0
  6  9  1  0  0  0  0
  5 10  1  6  0  0  0
 10 11  1  0  0  0  0
 10 12  2  0  0  0  0
  3 15  1  6  0  0  0
 16 17  1  0  0  0  0
 18 16  1  0  0  0  0
 19 17  1  0  0  0  0
 13 18  1  0  0  0  0
 13 19  1  0  0  0  0
 18 20  2  0  0  0  0
 19 21  1  0  0  0  0
 23 22  1  0  0  0  0
 24 22  2  0  0  0  0
 25 23  2  0  0  0  0
 26 24  1  0  0  0  0
 27 25  1  0  0  0  0
 27 26  2  0  0  0  0
 16 22  1  1  0  0  0
 19 28  1  0  0  0  0
M  END
> <ID>
CHEBI:5683

> <NAME>
hetacillin

> <STAR>
3

> <SYNONYM>
Hetacillin; 6beta-[(4R)-2,2-dimethyl-5-oxo-4-phenylimidazolidin-1-yl]penicillanic acid; (2S,5R,6R)-6-[(4R)-2,2-dimethyl-5-oxo-4-phenylimidazolidin-1-yl]-3,3-dimethyl-7-oxo-4-thia-1-azabicyclo[3.2.0]heptane-2-carboxylic acid

> <IUPAC_NAME>
6beta-[(4R)-2,2-dimethyl-5-oxo-4-phenylimidazolidin-1-yl]-2,2-dimethylpenam-3alpha-carboxylic acid

> <INN>
hetacillinum; hetacilline; hetacillin; hetacilina

> <FORMULA>
C19H23N3O4S

> <MASS>
389.46900

> <MONOISOTOPIC_MASS>
389.14093

> <CHARGE>
0

> <SMILES>
[H][C@]12SC(C)(C)[C@@H](N1C(=O)[C@H]2N1C(=O)[C@H](NC1(C)C)c1ccccc1)C(O)=O

> <INCHI>
InChI=1S/C19H23N3O4S/c1-18(2)13(17(25)26)21-15(24)12(16(21)27-18)22-14(23)11(20-19(22,3)4)10-8-6-5-7-9-10/h5-9,11-13,16,20H,1-4H3,(H,25,26)/t11-,12-,13+,16-/m1/s1

> <INCHIKEY>
DXVUYOAEDJXBPY-NFFDBFGFSA-N

> <BEILSTEIN_REGISTRY_NUMBER>
5405483

> <CAS_REGISTRY_NUMBER>
3511-16-8

> <CHEMIDPLUS>
3511-16-8

> <DRUGBANK_ACCESSION>
DB00739

> <KEGG_COMPOUND_ACCESSION>
C11729

> <KEGG_DRUG_ACCESSION>
D01074

> <WIKIPEDIA_ACCESSION>
Hetacillin

$$$$

Marvin  11200711372D          

 15 15  0  0  0  0            999 V2000
    0.0000   -0.8250    0.0000 C   0  0  0  0  0  0  0  0  0  0  0  0
   -0.7145   -0.4125    0.0000 C   0  0  0  0  0  0  0  0  0  0  0  0
    0.7145    0.4125    0.0000 C   0  0  0  0  0  0  0  0  0  0  0  0
    0.7145   -0.4125    0.0000 C   0  0  0  0  0  0  0  0  0  0  0  0
    0.0000    0.8250    0.0000 C   0  0  0  0  0  0  0  0  0  0  0  0
   -0.7145    0.4125    0.0000 C   0  0  0  0  0  0  0  0  0  0  0  0
    1.4289   -0.8250    0.0000 C   0  0  3  0  0  0  0  0  0  0  0  0
    2.1434   -0.4125    0.0000 C   0  0  0  0  0  0  0  0  0  0  0  0
    2.1434    0.4125    0.0000 O   0  0  0  0  0  0  0  0  0  0  0  0
    2.8579   -0.8250    0.0000 O   0  0  0  0  0  0  0  0  0  0  0  0
    1.4289   -1.6500    0.0000 C   0  0  0  0  0  0  0  0  0  0  0  0
   -1.4289    0.8250    0.0000 C   0  0  0  0  0  0  0  0  0  0  0  0
   -2.8579    0.8250    0.0000 C   0  0  0  0  0  0  0  0  0  0  0  0
   -2.1434    0.4125    0.0000 C   0  0  3  0  0  0  0  0  0  0  0  0
   -2.1434   -0.4125    0.0000 C   0  0  0  0  0  0  0  0  0  0  0  0
  2  1  1  0  0  0  0
  4  3  1  0  0  0  0
  1  4  2  0  0  0  0
  7  4  1  0  0  0  0
  5  3  2  0  0  0  0
  2  6  2  0  0  0  0
  6  5  1  0  0  0  0
 12  6  1  0  0  0  0
  8  7  1  0  0  0  0
 11  7  1  0  0  0  0
  9  8  2  0  0  0  0
 10  8  1  0  0  0  0
 12 14  1  0  0  0  0
 14 13  1  0  0  0  0
 14 15  1  0  0  0  0
M  END
> <ID>
CHEBI:5855

> <NAME>
ibuprofen

> <DEFINITION>
A monocarboxylic acid that is propionic acid in which one of the hydrogens at position 2 is substituted by a 4-(2-methylpropyl)phenyl group.

> <STAR>
3

> <SYNONYM>
Motrin; Ibuprofen; alpha-(p-isobutylphenyl)propionic acid; alpha-(4-isobutylphenyl)propionic acid; 4-isobutylhydratropic acid; 2-(4-isobutylphenyl)propanoic acid; (RS)-ibuprofen; (4-isobutylphenyl)-alpha-methylacetic acid; (+-)-p-isobutylhydratropic acid; (+-)-ibuprofen; (+-)-alpha-methyl-4-(2-methylpropyl)benzeneacetic acid; (+-)-2-(p-isobutylphenyl)propionic acid

> <IUPAC_NAME>
2-[4-(2-methylpropyl)phenyl]propanoic acid

> <BRAND_NAME>
Urem; Trendar; Tabalon; Suspren; Seclodin; Rufen; Roidenin; Pediaprofen; Nurofen; Nuprin; Nobgen; Nobfen; Mynosedin; Motrin; Medipren; Liptan; Lebrufen; Lamidon; Inoven; Inabrin; Ibutid; Ibuprocin; Ibumetin; Ibu-Attritin; Haltran; Femadon; Epobron; Ebufac; Dolo-Dolgit; Dolgit; Dolgirid; Dolgin; Butylenin; Buburone; Brufort; Brufen; Bluton; Apsifen; Anflagen; Anco; Amibufen; Advil; Adran

> <FORMULA>
C13H18O2

> <MASS>
206.28082

> <MONOISOTOPIC_MASS>
206.13068

> <CHARGE>
0

> <SMILES>
CC(C)Cc1ccc(cc1)C(C)C(O)=O

> <INCHI>
InChI=1S/C13H18O2/c1-9(2)8-11-4-6-12(7-5-11)10(3)13(14)15/h4-7,9-10H,8H2,1-3H3,(H,14,15)

> <INCHIKEY>
HEFNNWSXXWATRW-UHFFFAOYSA-N

> <BEILSTEIN_REGISTRY_NUMBER>
2049713

> <CAS_REGISTRY_NUMBER>
15687-27-1

> <REAXYS_REGISTRY_NUMBER>
2049713

> <CHEMIDPLUS>
15687-27-1

> <DRUGBANK_ACCESSION>
DB01050

> <HMDB_ACCESSION>
HMDB0001925

> <KEGG_COMPOUND_ACCESSION>
C01588

> <KEGG_DRUG_ACCESSION>
D00126

> <LINCS_ACCESSION>
LSM-1354

> <NIST_CHEMISTRY_WEBBOOK>
15687-27-1

> <WIKIPEDIA_ACCESSION>
Ibuprofen

> <PUBMED_CITATION>
11433218; 12723739; 14562167; 15506544; 16176022; 18335846; 18697608; 21368281; 24168233; 25708941; 25915907; 29756342

$$$$

Marvin  02231017592D          

 25 27  0  0  0  0            999 V2000
   -1.8313   -2.0625    0.0000 C   0  0  0  0  0  0  0  0  0  0  0  0
   -2.5458   -2.4750    0.0000 C   0  0  0  0  0  0  0  0  0  0  0  0
   -2.5458   -3.3000    0.0000 C   0  0  0  0  0  0  0  0  0  0  0  0
   -1.8313   -3.7125    0.0000 C   0  0  0  0  0  0  0  0  0  0  0  0
   -1.1168   -3.3000    0.0000 C   0  0  0  0  0  0  0  0  0  0  0  0
   -1.1168   -2.4750    0.0000 C   0  0  0  0  0  0  0  0  0  0  0  0
    1.7411   -2.4750    0.0000 C   0  0  1  0  0  0  0  0  0  0  0  0
    4.5544   -2.4825    0.0000 C   0  0  0  0  0  0  0  0  0  0  0  0
    3.8356   -2.8875    0.0000 C   0  0  0  0  0  0  0  0  0  0  0  0
    4.5544   -3.2925    0.0000 C   0  0  0  0  0  0  0  0  0  0  0  0
   -0.4023   -2.0625    0.0000 C   0  0  2  0  0  0  0  0  0  0  0  0
    1.0266   -2.0625    0.0000 N   0  0  0  0  0  0  0  0  0  0  0  0
    2.5661   -2.4750    0.0000 C   0  0  1  0  0  0  0  0  0  0  0  0
    3.3507   -3.5549    0.0000 C   0  0  2  0  0  0  0  0  0  0  0  0
    4.4126   -4.5111    0.0000 O   0  0  0  0  0  0  0  0  0  0  0  0
    3.6056   -4.3395    0.0000 C   0  0  0  0  0  0  0  0  0  0  0  0
    3.0536   -4.9526    0.0000 O   0  0  0  0  0  0  0  0  0  0  0  0
    0.3121   -2.4750    0.0000 C   0  0  0  0  0  0  0  0  0  0  0  0
    0.3121   -3.3000    0.0000 O   0  0  0  0  0  0  0  0  0  0  0  0
    1.7411   -3.3000    0.0000 C   0  0  0  0  0  0  0  0  0  0  0  0
    3.3507   -2.2200    0.0000 S   0  0  0  0  0  0  0  0  0  0  0  0
    2.5661   -3.3000    0.0000 N   0  0  0  0  0  0  0  0  0  0  0  0
   -0.4023   -1.2375    0.0000 N   0  0  0  0  0  0  0  0  0  0  0  0
    2.5661   -1.6500    0.0000 H   0  0  0  0  0  0  0  0  0  0  0  0
    1.1577   -3.8833    0.0000 O   0  0  0  0  0  0  0  0  0  0  0  0
  1  2  1  0  0  0  0
  1  6  1  0  0  0  0
  2  3  2  0  0  0  0
  3  4  1  0  0  0  0
  4  5  1  0  0  0  0
  5  6  2  0  0  0  0
  6 11  1  0  0  0  0
 11 18  1  0  0  0  0
 18 12  1  0  0  0  0
  7 12  1  1  0  0  0
  7 20  1  0  0  0  0
  7 13  1  0  0  0  0
 22 20  1  0  0  0  0
 22 14  1  0  0  0  0
 13 22  1  0  0  0  0
 21 13  1  0  0  0  0
 21  9  1  0  0  0  0
 14  9  1  0  0  0  0
  9  8  1  0  0  0  0
  9 10  1  0  0  0  0
 11 23  1  1  0  0  0
 14 16  1  6  0  0  0
 16 15  1  0  0  0  0
 16 17  2  0  0  0  0
 18 19  2  0  0  0  0
 13 24  1  6  0  0  0
 20 25  2  0  0  0  0
M  END
> <ID>
CHEBI:58974

> <NAME>
epicillin

> <DEFINITION>
A penicillin in which the substituent at position 6 of the penam ring is a (2R)-2-amino-2-(cyclohexa-1,4-dien-1-yl)acetamido group.

> <STAR>
3

> <SYNONYM>
Dihydroampicillin; Dexacillin

> <IUPAC_NAME>
6beta-[(2R)-2-amino-2-(cyclohexa-1,4-dien-1-yl)acetamido]-2,2-dimethylpenam-3alpha-carboxylic acid

> <INN>
epicillinum; epicilline; epicillin; epicilina

> <FORMULA>
C16H21N3O4S

> <MASS>
351.42100

> <MONOISOTOPIC_MASS>
351.12528

> <CHARGE>
0

> <SMILES>
[H][C@]12SC(C)(C)[C@@H](N1C(=O)[C@H]2NC(=O)[C@H](N)C1=CCC=CC1)C(O)=O

> <INCHI>
InChI=1S/C16H21N3O4S/c1-16(2)11(15(22)23)19-13(21)10(14(19)24-16)18-12(20)9(17)8-6-4-3-5-7-8/h3-4,7,9-11,14H,5-6,17H2,1-2H3,(H,18,20)(H,22,23)/t9-,10-,11+,14-/m1/s1

> <INCHIKEY>
RPBAFSBGYDKNRG-NJBDSQKTSA-N

> <BEILSTEIN_REGISTRY_NUMBER>
1091831

> <CAS_REGISTRY_NUMBER>
26774-90-3

> <REAXYS_REGISTRY_NUMBER>
1091831

> <CHEMIDPLUS>
26774-90-3

> <WIKIPEDIA_ACCESSION>
Epicillin

> <PUBMED_CITATION>
1170316; 1701026; 4404324; 7191790; 9689

$$$$

Marvin  03011016432D          

 10 12  0  0  0  0            999 V2000
   11.1288   -6.3719    0.0000 C   0  0  0  0  0  0  0  0  0  0  0  0
   10.4143   -6.7844    0.0000 C   0  0  0  0  0  0  0  0  0  0  0  0
   10.4143   -7.6094    0.0000 C   0  0  0  0  0  0  0  0  0  0  0  0
   11.1288   -8.0219    0.0000 C   0  0  0  0  0  0  0  0  0  0  0  0
   11.8431   -7.6094    0.0000 C   0  0  0  0  0  0  0  0  0  0  0  0
   11.8431   -6.7844    0.0000 C   0  0  0  0  0  0  0  0  0  0  0  0
   11.8433   -5.9594    0.0000 O   0  0  0  0  0  0  0  0  0  0  0  0
   11.1288   -8.8469    0.0000 C   0  0  0  0  0  0  0  0  0  0  0  0
   10.7163   -9.5614    0.0000 C   0  0  0  0  0  0  0  0  0  0  0  0
   11.5413   -9.5614    0.0000 O   0  0  0  0  0  0  0  0  0  0  0  0
  1  2  1  0  0  0  0
  2  3  1  0  0  0  0
  3  4  1  0  0  0  0
  4  5  1  0  0  0  0
  5  6  1  0  0  0  0
  7  1  1  0  0  0  0
  1  6  1  0  0  0  0
  6  7  1  0  0  0  0
  8  9  1  0  0  0  0
  9 10  1  0  0  0  0
  8 10  1  0  0  0  0
  4  8  1  0  0  0  0
M  END
> <ID>
CHEBI:59001

> <NAME>
4-vinylcyclohexene dioxide

> <DEFINITION>
The diepoxide of 4-vinylcyclohexene.

> <STAR>
3

> <SYNONYM>
Vinyl cyclohexene dioxide; Vinyl cyclohexene diepoxide; 4-Vinylcyclohexene diepoxide; 4-Vinyl-1-cyclohexene dioxide; 4-Vinyl-1,2-cyclohexene diepoxide; 4-(Epoxyethyl)-7-oxabicyclo(4.1.0)heptane; 4-(1,2-Epoxyethyl)-7-oxabicyclo(4.1.0)heptane; 3-Oxiranyl-7-oxabicyclo(4.1.0)heptane; 3-(Epoxyethyl)-7-oxabicyclo(4.1.0)heptane; 3-(1,2-Epoxyethyl)-7-oxabicyclo(4.1.0)heptane; 1-Vinyl-3-cyclohexene dioxide; 1-Ethyleneoxy-3,4-epoxycyclohexane; 1-Epoxyethyl-3,4-epoxycyclohexane

> <IUPAC_NAME>
3-(oxiran-2-yl)-7-oxabicyclo[4.1.0]heptane

> <FORMULA>
C8H12O2

> <MASS>
140.17970

> <MONOISOTOPIC_MASS>
140.08373

> <CHARGE>
0

> <SMILES>
C1CC2OC2CC1C1CO1

> <INCHI>
InChI=1S/C8H12O2/c1-2-6-7(10-6)3-5(1)8-4-9-8/h5-8H,1-4H2

> <INCHIKEY>
OECTYKWYRCHAKR-UHFFFAOYSA-N

> <BEILSTEIN_REGISTRY_NUMBER>
106071

> <CAS_REGISTRY_NUMBER>
106-87-6

> <REAXYS_REGISTRY_NUMBER>
106071

> <CHEMIDPLUS>
106-87-6

> <KEGG_COMPOUND_ACCESSION>
C19311

> <PUBMED_CITATION>
3356477; 7496092

$$$$

Ketcher 12141610122D 1   1.00000     0.00000     0

 26 28  0     0  0            999 V2000
    6.4557   -4.4825    0.0000 C   0  0  0  0  0  0  0  0  0  0  0  0
    6.4557   -5.4826    0.0000 C   0  0  0  0  0  0  0  0  0  0  0  0
    5.5895   -3.9824    0.0000 C   0  0  0  0  0  0  0  0  0  0  0  0
    5.5895   -5.9827    0.0000 C   0  0  0  0  0  0  0  0  0  0  0  0
    4.7234   -4.4825    0.0000 C   0  0  0  0  0  0  0  0  0  0  0  0
    4.7234   -5.4826    0.0000 C   0  0  0  0  0  0  0  0  0  0  0  0
    7.3219   -5.9827    0.0000 C   0  0  0  0  0  0  0  0  0  0  0  0
    8.1868   -8.4806    0.0000 C   0  0  0  0  0  0  0  0  0  0  0  0
    9.0530   -8.9807    0.0000 C   0  0  0  0  0  0  0  0  0  0  0  0
    9.9191   -8.4806    0.0000 C   0  0  0  0  0  0  0  0  0  0  0  0
    9.9191   -7.4804    0.0000 C   0  0  0  0  0  0  0  0  0  0  0  0
    9.0529   -6.9805    0.0000 C   0  0  0  0  0  0  0  0  0  0  0  0
    8.1868   -7.4805    0.0000 C   0  0  0  0  0  0  0  0  0  0  0  0
    7.3206   -6.9805    0.0000 C   0  0  0  0  0  0  0  0  0  0  0  0
    6.4545   -7.4806    0.0000 C   0  0  0  0  0  0  0  0  0  0  0  0
    6.4545   -8.4807    0.0000 C   0  0  0  0  0  0  0  0  0  0  0  0
    7.3207   -8.9808    0.0000 C   0  0  0  0  0  0  0  0  0  0  0  0
    9.0529   -5.9803    0.0000 S   0  0  0  0  0  0  0  0  0  0  0  0
    7.3207   -9.9809    0.0000 N   0  0  0  0  0  0  0  0  0  0  0  0
    8.1869  -10.4809    0.0000 C   0  0  0  0  0  0  0  0  0  0  0  0
    6.4546  -10.4810    0.0000 C   0  0  0  0  0  0  0  0  0  0  0  0
    8.1867   -5.4804    0.0000 N   0  0  0  0  0  0  0  0  0  0  0  0
   10.0530   -5.9803    0.0000 O   0  0  0  0  0  0  0  0  0  0  0  0
    9.5528   -5.1141    0.0000 O   0  0  0  0  0  0  0  0  0  0  0  0
    3.8544   -3.9824    0.0000 N   0  0  0  0  0  0  0  0  0  0  0  0
    3.8559   -2.9883    0.0000 O   0  0  0  0  0  0  0  0  0  0  0  0
  2  1  1  0     0  0
  3  1  2  0     0  0
  4  2  2  0     0  0
  5  3  1  0     0  0
  6  4  1  0     0  0
  6  5  2  0     0  0
  2  7  1  0     0  0
  8  9  1  0     0  0
  8 13  2  0     0  0
  8 17  1  0     0  0
  9 10  2  0     0  0
 10 11  1  0     0  0
 11 12  2  0     0  0
 12 13  1  0     0  0
 13 14  1  0     0  0
 14 15  2  0     0  0
 15 16  1  0     0  0
 16 17  2  0     0  0
 12 18  1  0     0  0
 17 19  1  0     0  0
 19 20  1  0     0  0
 19 21  1  0     0  0
 18 22  1  0     0  0
 23 18  2  0     0  0
 24 18  2  0     0  0
 22  7  1  0     0  0
  5 25  1  0     0  0
 25 26  2  0     0  0
M  END
> <ID>
CHEBI:59035

> <NAME>
5-(dimethylamino)-N-(4-nitrosobenzyl)naphthalene-1-sulfonamide

> <DEFINITION>
A sulfonamide obtained by formal condensation of the sulfo group of 5-(dimethylamino)-naphthalene-1-sulfonic acid with the amino group of 4-nitrosobenzylamine.

> <STAR>
3

> <SYNONYM>
DNSBA-NO; DNS-4NSBA; 5-(dimethylamino)-N-(4-nitrosobenzyl)naphthalene-1-sulfonamide

> <IUPAC_NAME>
5-(dimethylamino)-N-[(4-nitrosophenyl)methyl]naphthalene-1-sulfonamide

> <FORMULA>
C19H19N3O3S

> <MASS>
369.439

> <MONOISOTOPIC_MASS>
369.11471

> <CHARGE>
0

> <SMILES>
C=1C(=CC=C(C1)N=O)CNS(C2=CC=CC3=C2C=CC=C3N(C)C)(=O)=O

> <INCHI>
InChI=1S/C19H19N3O3S/c1-22(2)18-7-3-6-17-16(18)5-4-8-19(17)26(24,25)20-13-14-9-11-15(21-23)12-10-14/h3-12,20H,13H2,1-2H3

> <INCHIKEY>
XKTQDSMBOPQHOR-UHFFFAOYSA-N

> <PUBMED_CITATION>
16308284; 22342371

$$$$

Mrv0541 03111411412D          

 14 15  0  0  0  0            999 V2000
   10.9190   -1.1666    0.0000 N   0  0  0  0  0  0  0  0  0  0  0  0
   13.7717    0.4804    0.0000 N   0  0  0  0  0  0  0  0  0  0  0  0
   13.0573    0.0679    0.0000 C   0  0  0  0  0  0  0  0  0  0  0  0
   13.0548   -0.7526    0.0000 C   0  0  0  0  0  0  0  0  0  0  0  0
   12.3453   -1.1622    0.0000 C   0  0  0  0  0  0  0  0  0  0  0  0
   11.6335   -0.7541    0.0000 C   0  0  0  0  0  0  0  0  0  0  0  0
   11.6360    0.0663    0.0000 C   0  0  0  0  0  0  0  0  0  0  0  0
   12.3455    0.4760    0.0000 C   0  0  0  0  0  0  0  0  0  0  0  0
    8.7827   -0.7553    0.0000 C   0  0  0  0  0  0  0  0  0  0  0  0
    8.7826    0.0700    0.0000 C   0  0  0  0  0  0  0  0  0  0  0  0
    9.4971    0.4825    0.0000 C   0  0  0  0  0  0  0  0  0  0  0  0
   10.2117    0.0697    0.0000 C   0  0  0  0  0  0  0  0  0  0  0  0
   10.2121   -0.7558    0.0000 C   0  0  0  0  0  0  0  0  0  0  0  0
    9.4976   -1.1683    0.0000 C   0  0  0  0  0  0  0  0  0  0  0  0
  6  1  1  0  0  0  0
 13  1  1  0  0  0  0
  3  2  1  0  0  0  0
  8  3  2  0  0  0  0
  4  3  1  0  0  0  0
  5  4  2  0  0  0  0
  6  5  1  0  0  0  0
  7  6  2  0  0  0  0
  8  7  1  0  0  0  0
 14  9  2  0  0  0  0
 10  9  1  0  0  0  0
 11 10  2  0  0  0  0
 12 11  1  0  0  0  0
 13 12  2  0  0  0  0
 14 13  1  0  0  0  0
M  END
> <ID>
CHEBI:59038

> <NAME>
p-aminodiphenylamine

> <DEFINITION>
An aromatic amine that is the 4-amino derivative of diphenylamine.

> <STAR>
3

> <SYNONYM>
p-Semidine; p-Anilinoaniline; p-Aminodiphenylamine; p-(Phenylamino)aniline; N-Phenyl-p-phenylenediamine; N-Phenyl-p-aminoaniline; N-Phenyl-1,4-phenylenediamine; N-Phenyl-1,4-benzenediamine; N-4'-Bianiline; N-(4-Aminophenyl)aniline; N, 4'-Bianiline; Luxan Black R; Azosalt R; 4-Aminodiphenylamine

> <IUPAC_NAME>
N-phenylbenzene-1,4-diamine

> <FORMULA>
C12H12N2

> <MASS>
184.23710

> <MONOISOTOPIC_MASS>
184.10005

> <CHARGE>
0

> <SMILES>
Nc1ccc(Nc2ccccc2)cc1

> <INCHI>
InChI=1S/C12H12N2/c13-10-6-8-12(9-7-10)14-11-4-2-1-3-5-11/h1-9,14H,13H2

> <INCHIKEY>
ATGUVEKSASEFFO-UHFFFAOYSA-N

> <BEILSTEIN_REGISTRY_NUMBER>
908935

> <CAS_REGISTRY_NUMBER>
101-54-2

> <GMELIN_REGISTRY_NUMBER>
241334

> <REAXYS_REGISTRY_NUMBER>
908935

> <CHEMIDPLUS>
101-54-2

> <NIST_CHEMISTRY_WEBBOOK>
101-54-2

> <PUBMED_CITATION>
23973574; 9874021

$$$$

Marvin  03181012182D          

  9  8  0  0  0  0            999 V2000
   10.9479  -11.9551    0.0000 C   0  0  0  0  0  0  0  0  0  0  0  0
   10.2338  -11.5419    0.0000 C   0  0  0  0  0  0  0  0  0  0  0  0
    9.5175  -11.9564    0.0000 C   0  0  0  0  0  0  0  0  0  0  0  0
    8.8034  -11.5432    0.0000 C   0  0  0  0  0  0  0  0  0  0  0  0
    8.0715  -11.9486    0.0000 C   0  0  0  0  0  0  0  0  0  0  0  0
    7.3648  -11.5227    0.0000 C   0  0  0  0  0  0  0  0  0  0  0  0
   12.3693  -11.9694    0.0000 C   0  0  0  0  0  0  0  0  0  0  0  0
   11.6552  -11.5563    0.0000 N   0  0  0  0  0  0  0  0  0  0  0  0
   13.0834  -12.3826    0.0000 O   0  0  0  0  0  0  0  0  0  0  0  0
  8  7  2  0  0  0  0
  9  7  2  0  0  0  0
  1  8  1  0  0  0  0
  2  1  1  0  0  0  0
  3  2  1  0  0  0  0
  4  3  1  0  0  0  0
  5  4  1  0  0  0  0
  6  5  1  0  0  0  0
M  END
> <ID>
CHEBI:59058

> <NAME>
hexyl isocyanate

> <DEFINITION>
An isocyanate in which a single isocyanato substituent is located at C-1 of a hexane molecule; found to be immunogenic in guinea pigs.

> <STAR>
3

> <SYNONYM>
HMI; hexylmonoisocyanate; hexyl monoisocyanate; 1-Hexyl isocyanate

> <IUPAC_NAME>
1-isocyanatohexane

> <FORMULA>
C7H13NO

> <MASS>
127.18420

> <MONOISOTOPIC_MASS>
127.09971

> <CHARGE>
0

> <SMILES>
CCCCCCN=C=O

> <INCHI>
InChI=1S/C7H13NO/c1-2-3-4-5-6-8-7-9/h2-6H2,1H3

> <INCHIKEY>
ANJPRQPHZGHVQB-UHFFFAOYSA-N

> <BEILSTEIN_REGISTRY_NUMBER>
1751836

> <CAS_REGISTRY_NUMBER>
2525-62-4

> <GMELIN_REGISTRY_NUMBER>
200966

> <REAXYS_REGISTRY_NUMBER>
1751836

> <CHEMIDPLUS>
2525-62-4

> <PUBMED_CITATION>
16091349; 3810654; 6821040

$$$$

Marvin  03181013162D          

  4  3  0  0  0  0            999 V2000
    9.7944  -12.5434    0.0000 C   0  0  0  0  0  0  0  0  0  0  0  0
   11.2208  -12.5477    0.0000 C   0  0  0  0  0  0  0  0  0  0  0  0
   10.5064  -12.1352    0.0000 N   0  0  0  0  0  0  0  0  0  0  0  0
   11.9353  -12.9602    0.0000 O   0  0  0  0  0  0  0  0  0  0  0  0
  3  2  2  0  0  0  0
  4  2  2  0  0  0  0
  1  3  1  0  0  0  0
M  END
> <ID>
CHEBI:59059

> <NAME>
methyl isocyanate

> <DEFINITION>
The isocyanate that is methane modified by a single isocyanato substituent.

> <STAR>
3

> <SYNONYM>
MIC; Methylcarbylamine; Methyl isocyanide; Methyl carbonimide; isocyanatomethane; Isocyanate de methyle; Iso-cyanatomethane

> <IUPAC_NAME>
isocyanatomethane

> <FORMULA>
C2H3NO

> <MASS>
57.05130

> <MONOISOTOPIC_MASS>
57.02146

> <CHARGE>
0

> <SMILES>
CN=C=O

> <INCHI>
InChI=1S/C2H3NO/c1-3-2-4/h1H3

> <INCHIKEY>
HAMGRBXTJNITHG-UHFFFAOYSA-N

> <BEILSTEIN_REGISTRY_NUMBER>
605318

> <CAS_REGISTRY_NUMBER>
624-83-9

> <GMELIN_REGISTRY_NUMBER>
100500

> <REAXYS_REGISTRY_NUMBER>
605318

> <CHEMIDPLUS>
624-83-9

> <DRUGBANK_ACCESSION>
DB04337

> <NIST_CHEMISTRY_WEBBOOK>
624-83-9

> <PUBMED_CITATION>
16091349; 19494520; 24081639; 3622432; 6821040

$$$$

Marvin  03161016502D          

 15 16  0  0  0  0            999 V2000
   -1.7089    1.7679    0.0000 C   0  0  0  0  0  0  0  0  0  0  0  0
   -0.9945    1.3554    0.0000 C   0  0  0  0  0  0  0  0  0  0  0  0
   -0.9945    0.5303    0.0000 C   0  0  0  0  0  0  0  0  0  0  0  0
   -1.7089    0.1178    0.0000 C   0  0  0  0  0  0  0  0  0  0  0  0
   -2.4234    0.5303    0.0000 C   0  0  0  0  0  0  0  0  0  0  0  0
   -2.4234    1.3554    0.0000 C   0  0  0  0  0  0  0  0  0  0  0  0
   -0.2098    1.6103    0.0000 C   0  0  0  0  0  0  0  0  0  0  0  0
   -0.2098    0.2755    0.0000 C   0  0  0  0  0  0  0  0  0  0  0  0
    0.2751    0.9429    0.0000 O   0  0  0  0  0  0  0  0  0  0  0  0
    0.0037    2.4072    0.0000 O   0  0  0  0  0  0  0  0  0  0  0  0
    0.0037   -0.5214    0.0000 O   0  0  0  0  0  0  0  0  0  0  0  0
   -1.7089    2.5929    0.0000 Cl  0  0  0  0  0  0  0  0  0  0  0  0
   -3.1379    1.7679    0.0000 Cl  0  0  0  0  0  0  0  0  0  0  0  0
   -3.1379    0.1178    0.0000 Cl  0  0  0  0  0  0  0  0  0  0  0  0
   -1.7089   -0.7072    0.0000 Cl  0  0  0  0  0  0  0  0  0  0  0  0
  1  2  1  0  0  0  0
  1  6  2  0  0  0  0
  3  4  1  0  0  0  0
  4  5  2  0  0  0  0
  5  6  1  0  0  0  0
  7  2  1  0  0  0  0
  2  3  2  0  0  0  0
  3  8  1  0  0  0  0
  7  9  1  0  0  0  0
  8  9  1  0  0  0  0
  7 10  2  0  0  0  0
  8 11  2  0  0  0  0
  1 12  1  0  0  0  0
  6 13  1  0  0  0  0
  5 14  1  0  0  0  0
  4 15  1  0  0  0  0
M  END
> <ID>
CHEBI:59097

> <NAME>
tetrachlorophthalic anhydride

> <DEFINITION>
A cyclic dicarboxylic anhydride that is phthalic anhydride chlorinated at the 4-, 5-, 6- and 7-positions.

> <STAR>
3

> <SYNONYM>
Tetrathal; etrachlorophthalic acid anhydride; 4,5,6,7-Tetrachloro-1,3-isobenzofurandione; 1,3-Dioxy-4,5,6,7-tetrachloroisobenzofuran

> <IUPAC_NAME>
4,5,6,7-tetrachloro-2-benzofuran-1,3-dione

> <FORMULA>
C8Cl4O3

> <MASS>
285.89600

> <MONOISOTOPIC_MASS>
283.86015

> <CHARGE>
0

> <SMILES>
Clc1c(Cl)c(Cl)c2C(=O)OC(=O)c2c1Cl

> <INCHI>
InChI=1S/C8Cl4O3/c9-3-1-2(8(14)15-7(1)13)4(10)6(12)5(3)11

> <INCHIKEY>
AUHHYELHRWCWEZ-UHFFFAOYSA-N

> <BEILSTEIN_REGISTRY_NUMBER>
211560

> <CAS_REGISTRY_NUMBER>
117-08-8

> <REAXYS_REGISTRY_NUMBER>
211560

> <CHEMIDPLUS>
117-08-8

> <NIST_CHEMISTRY_WEBBOOK>
117-08-8

> <PUBMED_CITATION>
12209178; 3711550; 627936; 6822691; 8349934; 9648696

$$$$

Marvin  03221014202D          

 25 25  0  0  0  0            999 V2000
   -2.2982    0.7661    0.0000 C   0  0  0  0  0  0  0  0  0  0  0  0
   -3.0127    0.3536    0.0000 C   0  0  0  0  0  0  0  0  0  0  0  0
   -3.0127   -0.4714    0.0000 C   0  0  0  0  0  0  0  0  0  0  0  0
   -2.2982   -0.8839    0.0000 C   0  0  0  0  0  0  0  0  0  0  0  0
   -1.5837   -0.4714    0.0000 C   0  0  0  0  0  0  0  0  0  0  0  0
   -1.5837    0.3536    0.0000 C   0  0  0  0  0  0  0  0  0  0  0  0
   -2.2982    1.5911    0.0000 O   0  0  0  0  0  0  0  0  0  0  0  0
   -0.8693    0.7661    0.0000 O   0  0  0  0  0  0  0  0  0  0  0  0
   -3.7272   -0.8839    0.0000 C   0  0  0  0  0  0  0  0  0  0  0  0
   -0.8693   -0.8839    0.0000 C   0  0  0  0  0  0  0  0  0  0  0  0
   -0.1548   -0.4714    0.0000 C   0  0  0  0  0  0  0  0  0  0  0  0
    0.5597   -0.8839    0.0000 C   0  0  0  0  0  0  0  0  0  0  0  0
    1.2741   -0.4714    0.0000 C   0  0  0  0  0  0  0  0  0  0  0  0
    1.9886   -0.8839    0.0000 C   0  0  0  0  0  0  0  0  0  0  0  0
    2.7031   -0.4714    0.0000 C   0  0  0  0  0  0  0  0  0  0  0  0
    3.4175   -0.8839    0.0000 C   0  0  0  0  0  0  0  0  0  0  0  0
    4.1320   -0.4714    0.0000 C   0  0  0  0  0  0  0  0  0  0  0  0
    4.8465   -0.8839    0.0000 C   0  0  0  0  0  0  0  0  0  0  0  0
    5.5610   -0.4714    0.0000 C   0  0  0  0  0  0  0  0  0  0  0  0
    6.2754   -0.8839    0.0000 C   0  0  0  0  0  0  0  0  0  0  0  0
    6.9899   -0.4714    0.0000 C   0  0  0  0  0  0  0  0  0  0  0  0
    7.7044   -0.8839    0.0000 C   0  0  0  0  0  0  0  0  0  0  0  0
    8.4188   -0.4714    0.0000 C   0  0  0  0  0  0  0  0  0  0  0  0
    9.1333   -0.8839    0.0000 C   0  0  0  0  0  0  0  0  0  0  0  0
   -3.7272    0.7661    0.0000 C   0  0  0  0  0  0  0  0  0  0  0  0
  1  2  1  0  0  0  0
  1  6  2  0  0  0  0
  2  3  2  0  0  0  0
  3  4  1  0  0  0  0
  4  5  2  0  0  0  0
  5  6  1  0  0  0  0
  1  7  1  0  0  0  0
  6  8  1  0  0  0  0
  3  9  1  0  0  0  0
  5 10  1  0  0  0  0
 10 11  1  0  0  0  0
 11 12  1  0  0  0  0
 12 13  1  0  0  0  0
 13 14  1  0  0  0  0
 14 15  1  0  0  0  0
 15 16  1  0  0  0  0
 16 17  1  0  0  0  0
 17 18  1  0  0  0  0
 18 19  1  0  0  0  0
 19 20  1  0  0  0  0
 20 21  1  0  0  0  0
 21 22  1  0  0  0  0
 22 23  1  0  0  0  0
 23 24  1  0  0  0  0
  2 25  1  0  0  0  0
M  END
> <ID>
CHEBI:59106

> <NAME>
5,6-dimethyl-3-pentadecylcatechol

> <DEFINITION>
Catechol substituted at positions 5 and 6 (3 and 4) with methyl groups and at position 6 (3) with a pentadecyl group.

> <STAR>
3

> <SYNONYM>
5,6-di-Me-PDC; 3,4-dimethyl-6-pentadecylcatechol

> <IUPAC_NAME>
3,4-dimethyl-6-pentadecylbenzene-1,2-diol

> <FORMULA>
C23H40O2

> <MASS>
348.56250

> <MONOISOTOPIC_MASS>
348.30283

> <CHARGE>
0

> <SMILES>
CCCCCCCCCCCCCCCc1cc(C)c(C)c(O)c1O

> <INCHI>
InChI=1S/C23H40O2/c1-4-5-6-7-8-9-10-11-12-13-14-15-16-17-21-18-19(2)20(3)22(24)23(21)25/h18,24-25H,4-17H2,1-3H3

> <INCHIKEY>
PICSKMJWWDBMPH-UHFFFAOYSA-N

> <PUBMED_CITATION>
3742608

$$$$

Marvin  03221015012D          

 26 26  0  0  0  0            999 V2000
   -1.0018    0.6188    0.0000 C   0  0  0  0  0  0  0  0  0  0  0  0
   -1.7163    0.2063    0.0000 C   0  0  0  0  0  0  0  0  0  0  0  0
   -1.7163   -0.6188    0.0000 C   0  0  0  0  0  0  0  0  0  0  0  0
   -1.0018   -1.0313    0.0000 C   0  0  0  0  0  0  0  0  0  0  0  0
   -0.2873   -0.6188    0.0000 C   0  0  0  0  0  0  0  0  0  0  0  0
   -0.2873    0.2063    0.0000 C   0  0  0  0  0  0  0  0  0  0  0  0
   -1.0018    1.4438    0.0000 O   0  0  0  0  0  0  0  0  0  0  0  0
    0.4272    0.6188    0.0000 O   0  0  0  0  0  0  0  0  0  0  0  0
    0.4272   -1.0313    0.0000 C   0  0  0  0  0  0  0  0  0  0  0  0
   -1.0018   -1.8563    0.0000 C   0  0  0  0  0  0  0  0  0  0  0  0
   -2.4307   -1.0313    0.0000 C   0  0  0  0  0  0  0  0  0  0  0  0
   -2.4308    0.6188    0.0000 C   0  0  0  0  0  0  0  0  0  0  0  0
    1.1417   -0.6188    0.0000 C   0  0  0  0  0  0  0  0  0  0  0  0
    1.8561   -1.0313    0.0000 C   0  0  0  0  0  0  0  0  0  0  0  0
    2.5706   -0.6188    0.0000 C   0  0  0  0  0  0  0  0  0  0  0  0
    3.2851   -1.0313    0.0000 C   0  0  0  0  0  0  0  0  0  0  0  0
    3.9996   -0.6188    0.0000 C   0  0  0  0  0  0  0  0  0  0  0  0
    4.7140   -1.0313    0.0000 C   0  0  0  0  0  0  0  0  0  0  0  0
    5.4285   -0.6188    0.0000 C   0  0  0  0  0  0  0  0  0  0  0  0
    6.1430   -1.0313    0.0000 C   0  0  0  0  0  0  0  0  0  0  0  0
    6.8574   -0.6188    0.0000 C   0  0  0  0  0  0  0  0  0  0  0  0
    7.5719   -1.0313    0.0000 C   0  0  0  0  0  0  0  0  0  0  0  0
    8.2864   -0.6188    0.0000 C   0  0  0  0  0  0  0  0  0  0  0  0
    9.0009   -1.0313    0.0000 C   0  0  0  0  0  0  0  0  0  0  0  0
    9.7153   -0.6188    0.0000 C   0  0  0  0  0  0  0  0  0  0  0  0
   10.4298   -1.0313    0.0000 C   0  0  0  0  0  0  0  0  0  0  0  0
  1  2  1  0  0  0  0
  1  6  2  0  0  0  0
  2  3  2  0  0  0  0
  3  4  1  0  0  0  0
  4  5  2  0  0  0  0
  5  6  1  0  0  0  0
  1  7  1  0  0  0  0
  6  8  1  0  0  0  0
  5  9  1  0  0  0  0
  4 10  1  0  0  0  0
  3 11  1  0  0  0  0
  2 12  1  0  0  0  0
  9 13  1  0  0  0  0
 13 14  1  0  0  0  0
 14 15  1  0  0  0  0
 15 16  1  0  0  0  0
 16 17  1  0  0  0  0
 17 18  1  0  0  0  0
 18 19  1  0  0  0  0
 19 20  1  0  0  0  0
 20 21  1  0  0  0  0
 21 22  1  0  0  0  0
 22 23  1  0  0  0  0
 23 24  1  0  0  0  0
 24 25  1  0  0  0  0
 25 26  1  0  0  0  0
M  END
> <ID>
CHEBI:59109

> <NAME>
4,5,6-trimethyl-3-pentadecylcatechol

> <DEFINITION>
Catechol substituted at positions 3, 4 and 5 (4, 5 and 6) with methyl groups and at position 6 (3) with a pentadecyl group.

> <STAR>
3

> <SYNONYM>
4,5,6-tri-Me-PDC; 3,4,5-trimethyl-6-pentadecylcatechol

> <IUPAC_NAME>
3,4,5-trimethyl-6-pentadecylbenzene-1,2-diol

> <FORMULA>
C24H42O2

> <MASS>
362.58910

> <MONOISOTOPIC_MASS>
362.31848

> <CHARGE>
0

> <SMILES>
CCCCCCCCCCCCCCCc1c(C)c(C)c(C)c(O)c1O

> <INCHI>
InChI=1S/C24H42O2/c1-5-6-7-8-9-10-11-12-13-14-15-16-17-18-22-20(3)19(2)21(4)23(25)24(22)26/h25-26H,5-18H2,1-4H3

> <INCHIKEY>
LDSXBSAASMZCGN-UHFFFAOYSA-N

> <BEILSTEIN_REGISTRY_NUMBER>
3062782

> <CAS_REGISTRY_NUMBER>
16273-19-1

> <CHEMIDPLUS>
16273-19-1

> <PUBMED_CITATION>
3742608

$$$$

Marvin  03221015312D          

 23 23  0  0  0  0            999 V2000
   -2.2982    0.7661    0.0000 C   0  0  0  0  0  0  0  0  0  0  0  0
   -3.0127    0.3536    0.0000 C   0  0  0  0  0  0  0  0  0  0  0  0
   -3.0127   -0.4714    0.0000 C   0  0  0  0  0  0  0  0  0  0  0  0
   -2.2982   -0.8839    0.0000 C   0  0  0  0  0  0  0  0  0  0  0  0
   -1.5837   -0.4714    0.0000 C   0  0  0  0  0  0  0  0  0  0  0  0
   -1.5837    0.3536    0.0000 C   0  0  0  0  0  0  0  0  0  0  0  0
   -2.2982    1.5911    0.0000 O   0  0  0  0  0  0  0  0  0  0  0  0
   -0.8693    0.7661    0.0000 O   0  0  0  0  0  0  0  0  0  0  0  0
   -0.8693   -0.8839    0.0000 C   0  0  0  0  0  0  0  0  0  0  0  0
   -0.1548   -0.4714    0.0000 C   0  0  0  0  0  0  0  0  0  0  0  0
    0.5597   -0.8839    0.0000 C   0  0  0  0  0  0  0  0  0  0  0  0
    1.2741   -0.4714    0.0000 C   0  0  0  0  0  0  0  0  0  0  0  0
    1.9886   -0.8839    0.0000 C   0  0  0  0  0  0  0  0  0  0  0  0
    2.7031   -0.4714    0.0000 C   0  0  0  0  0  0  0  0  0  0  0  0
    3.4175   -0.8839    0.0000 C   0  0  0  0  0  0  0  0  0  0  0  0
    4.1320   -0.4714    0.0000 C   0  0  0  0  0  0  0  0  0  0  0  0
    4.8465   -0.8839    0.0000 C   0  0  0  0  0  0  0  0  0  0  0  0
    5.5610   -0.4714    0.0000 C   0  0  0  0  0  0  0  0  0  0  0  0
    6.2754   -0.8839    0.0000 C   0  0  0  0  0  0  0  0  0  0  0  0
    6.9899   -0.4714    0.0000 C   0  0  0  0  0  0  0  0  0  0  0  0
    7.7044   -0.8839    0.0000 C   0  0  0  0  0  0  0  0  0  0  0  0
    8.4188   -0.4714    0.0000 C   0  0  0  0  0  0  0  0  0  0  0  0
    9.1333   -0.8839    0.0000 C   0  0  0  0  0  0  0  0  0  0  0  0
  1  2  1  0  0  0  0
  1  6  2  0  0  0  0
  2  3  2  0  0  0  0
  3  4  1  0  0  0  0
  4  5  2  0  0  0  0
  5  6  1  0  0  0  0
  1  7  1  0  0  0  0
  6  8  1  0  0  0  0
  5  9  1  0  0  0  0
  9 10  1  0  0  0  0
 10 11  1  0  0  0  0
 11 12  1  0  0  0  0
 12 13  1  0  0  0  0
 13 14  1  0  0  0  0
 14 15  1  0  0  0  0
 15 16  1  0  0  0  0
 16 17  1  0  0  0  0
 17 18  1  0  0  0  0
 18 19  1  0  0  0  0
 19 20  1  0  0  0  0
 20 21  1  0  0  0  0
 21 22  1  0  0  0  0
 22 23  1  0  0  0  0
M  END
> <ID>
CHEBI:59111

> <NAME>
3-pentadecylcatechol

> <DEFINITION>
Catechol substituted at position 3 with a pentadecyl group.

> <STAR>
3

> <SECONDARY_ID>
CHEBI:103066

> <SYNONYM>
Tetrahydrourushiol; PDC; Hydroureshiol; Dihydrorhengol; 3-Pentadecylcatechol; 3-Pentadecyl-benzene-1,2-diol; 3-Pentadecacatechol; 3-PDC; 3-n-Pentadecylpyrocatechol; 3-n-Pentadecylcatechol

> <IUPAC_NAME>
3-pentadecylbenzene-1,2-diol

> <FORMULA>
C21H36O2

> <MASS>
320.50930

> <MONOISOTOPIC_MASS>
320.27153

> <CHARGE>
0

> <SMILES>
CCCCCCCCCCCCCCCc1cccc(O)c1O

> <INCHI>
InChI=1S/C21H36O2/c1-2-3-4-5-6-7-8-9-10-11-12-13-14-16-19-17-15-18-20(22)21(19)23/h15,17-18,22-23H,2-14,16H2,1H3

> <INCHIKEY>
DQTMTQZSOJMZSF-UHFFFAOYSA-N

> <BEILSTEIN_REGISTRY_NUMBER>
1885390

> <CAS_REGISTRY_NUMBER>
492-89-7

> <REAXYS_REGISTRY_NUMBER>
1885390

> <CHEMIDPLUS>
492-89-7

> <PUBMED_CITATION>
124541; 18918804; 21015760; 3742608; 6827123; 10651166

$$$$

Marvin  04161014342D          

 44 48  0  0  1  0            999 V2000
   13.1567  -13.0757    0.0000 N   0  0  0  0  0  0  0  0  0  0  0  0
   11.8030  -13.0757    0.0000 C   0  0  0  0  0  0  0  0  0  0  0  0
   11.8030  -11.7220    0.0000 C   0  0  0  0  0  0  0  0  0  0  0  0
   13.1567  -11.7220    0.0000 C   0  0  0  0  0  0  0  0  0  0  0  0
   19.0184  -13.7525    0.0000 C   0  0  0  0  0  0  0  0  0  0  0  0
   14.3291  -13.7525    0.0000 C   0  0  0  0  0  0  0  0  0  0  0  0
   20.2551  -13.2019    0.0000 N   0  0  0  0  0  0  0  0  0  0  0  0
   19.1599  -15.0988    0.0000 N   0  0  0  0  0  0  0  0  0  0  0  0
   20.4840  -15.3803    0.0000 N   0  0  0  0  0  0  0  0  0  0  0  0
   21.1609  -14.2079    0.0000 N   0  0  0  0  0  0  0  0  0  0  0  0
   10.6307  -11.0451    0.0000 N   0  0  0  0  0  0  0  0  0  0  0  0
    5.9414  -11.0451    0.0000 C   0  0  0  0  0  0  0  0  0  0  0  0
   14.3291  -11.0451    0.0000 S   0  0  0  0  0  0  0  0  0  0  0  0
    4.7690  -11.7219    0.0000 C   0  0  0  0  0  0  0  0  0  0  0  0
   15.5014  -13.0757    0.0000 C   0  0  0  0  0  0  0  0  0  0  0  0
    9.4584  -11.7219    0.0000 C   0  0  0  0  0  0  0  0  0  0  0  0
    7.1137  -11.7219    0.0000 N   0  0  0  0  0  0  0  0  0  0  0  0
    8.2860  -11.0451    0.0000 C   0  0  0  0  0  0  0  0  0  0  0  0
    3.5967  -11.0451    0.0000 C   0  0  0  0  0  0  0  0  0  0  0  0
   14.3291  -15.1062    0.0000 C   0  0  0  0  0  0  0  0  0  0  0  0
   17.8461  -13.0757    0.0000 S   0  0  0  0  0  0  0  0  0  0  0  0
    4.7690  -13.0756    0.0000 C   0  0  0  0  0  0  0  0  0  0  0  0
    3.5967  -13.7525    0.0000 N   0  0  0  0  0  0  0  0  0  0  0  0
   15.5014  -11.7220    0.0000 C   0  0  0  0  0  0  0  0  0  0  0  0
    2.4243  -11.7219    0.0000 C   0  0  0  0  0  0  0  0  0  0  0  0
   16.6737  -13.7525    0.0000 C   0  0  0  0  0  0  0  0  0  0  0  0
    8.2860   -9.6914    0.0000 C   0  0  0  0  0  0  0  0  0  0  0  0
    5.9414   -9.6914    0.0000 O   0  0  0  0  0  0  0  0  0  0  0  0
    9.4584  -13.0756    0.0000 O   0  0  0  0  0  0  0  0  0  0  0  0
   15.5014  -15.7831    0.0000 O   0  0  0  0  0  0  0  0  0  0  0  0
    2.4243  -13.0756    0.0000 C   0  0  0  0  0  0  0  0  0  0  0  0
    9.4584   -9.0146    0.0000 C   0  0  0  0  0  0  0  0  0  0  0  0
    7.1137   -9.0145    0.0000 C   0  0  0  0  0  0  0  0  0  0  0  0
    3.5967   -9.6914    0.0000 O   0  0  0  0  0  0  0  0  0  0  0  0
   20.5365  -11.8778    0.0000 C   0  0  0  0  0  0  0  0  0  0  0  0
   13.1567  -15.7831    0.0000 O   0  0  0  0  0  0  0  0  0  0  0  0
    8.2861   -6.9840    0.0000 C   0  0  0  0  0  0  0  0  0  0  0  0
    7.1137   -7.6608    0.0000 C   0  0  0  0  0  0  0  0  0  0  0  0
    9.4584   -7.6609    0.0000 C   0  0  0  0  0  0  0  0  0  0  0  0
    8.2861   -5.6303    0.0000 O   0  0  0  0  0  0  0  0  0  0  0  0
    1.2520  -13.7525    0.0000 C   0  0  0  0  0  0  0  0  0  0  0  0
   13.1722  -10.4507    0.0000 H   0  0  0  0  0  0  0  0  0  0  0  0
   11.8677  -10.4507    0.0000 H   0  0  0  0  0  0  0  0  0  0  0  0
   10.8626  -14.0161    0.0000 O   0  0  0  0  0  0  0  0  0  0  0  0
  2  1  1  0  0  0  0
  4  1  1  0  0  0  0
  6  1  1  0  0  0  0
  3  2  1  0  0  0  0
  4  3  1  0  0  0  0
  3 11  1  1  0  0  0
  3 43  1  6  0  0  0
 13  4  1  0  0  0  0
  4 42  1  6  0  0  0
 21  5  1  0  0  0  0
  7  5  1  0  0  0  0
  8  5  2  0  0  0  0
 15  6  2  0  0  0  0
 20  6  1  0  0  0  0
 10  7  1  0  0  0  0
 35  7  1  0  0  0  0
  9  8  1  0  0  0  0
 10  9  2  0  0  0  0
 16 11  1  0  0  0  0
 17 12  1  0  0  0  0
 14 12  1  0  0  0  0
 28 12  2  0  0  0  0
 24 13  1  0  0  0  0
 19 14  2  0  0  0  0
 22 14  1  0  0  0  0
 24 15  1  0  0  0  0
 26 15  1  0  0  0  0
 18 16  1  0  0  0  0
 29 16  2  0  0  0  0
 18 17  1  0  0  0  0
 18 27  1  6  0  0  0
 25 19  1  0  0  0  0
 34 19  1  0  0  0  0
 30 20  2  0  0  0  0
 36 20  1  0  0  0  0
 26 21  1  0  0  0  0
 23 22  2  0  0  0  0
 31 23  1  0  0  0  0
 31 25  2  0  0  0  0
 32 27  1  0  0  0  0
 33 27  2  0  0  0  0
 41 31  1  0  0  0  0
 39 32  2  0  0  0  0
 38 33  1  0  0  0  0
 38 37  2  0  0  0  0
 40 37  1  0  0  0  0
 39 37  1  0  0  0  0
  2 44  2  0  0  0  0
M  END
> <ID>
CHEBI:59213

> <NAME>
cefpiramide

> <DEFINITION>
A third-generation cephalosporin antibiotic with [(1-methyl-1H-tetrazol-5-yl)sulfanyl]methyl and (R)-2-{[(4-hydroxy-6-methylpyridin-3-yl)carbonyl]amino}-2-(4-hydroxyphenyl)acetamido groups at positions 3 and 7, respectively, of the cephem skeleton. It has a broad spectrum of antibacterial activity.

> <STAR>
3

> <IUPAC_NAME>
7beta-[(2R)-2-{[(4-hydroxy-6-methylpyridin-3-yl)carbonyl]amino}-2-(4-hydroxyphenyl)acetamido]-3-{[(1-methyl-1H-tetrazol-5-yl)sulfanyl]methyl}-3,4-didehydrocepham-4-carboxylic acid; (6R,7R)-7-{[(2R)-2-{[(4-hydroxy-6-methylpyridin-3-yl)carbonyl]amino}-2-(4-hydroxyphenyl)acetyl]amino}-3-{[(1-methyl-1H-tetrazol-5-yl)sulfanyl]methyl}-8-oxo-5-thia-1-azabicyclo[4.2.0]oct-2-ene-2-carboxylic acid

> <INN>
cefpiramidum; cefpiramido; cefpiramide

> <FORMULA>
C25H24N8O7S2

> <MASS>
612.63700

> <MONOISOTOPIC_MASS>
612.12094

> <CHARGE>
0

> <SMILES>
[H][C@]12SCC(CSc3nnnn3C)=C(N1C(=O)[C@@]2([H])NC(=O)[C@H](NC(=O)c1cnc(C)cc1O)c1ccc(O)cc1)C(O)=O

> <INCHI>
InChI=1S/C25H24N8O7S2/c1-11-7-16(35)15(8-26-11)20(36)27-17(12-3-5-14(34)6-4-12)21(37)28-18-22(38)33-19(24(39)40)13(9-41-23(18)33)10-42-25-29-30-31-32(25)2/h3-8,17-18,23,34H,9-10H2,1-2H3,(H,26,35)(H,27,36)(H,28,37)(H,39,40)/t17-,18-,23-/m1/s1

> <INCHIKEY>
PWAUCHMQEXVFJR-PMAPCBKXSA-N

> <BEILSTEIN_REGISTRY_NUMBER>
8179314

> <CAS_REGISTRY_NUMBER>
70797-11-4

> <CHEMIDPLUS>
70797-11-4

> <DRUGBANK_ACCESSION>
DB00430

> <KEGG_DRUG_ACCESSION>
D03428

> <WIKIPEDIA_ACCESSION>
Cefpiramide

> <PUBMED_CITATION>
29017833

$$$$

Marvin  05041014332D          

 34 37  0  0  1  0            999 V2000
   10.5351   -8.4707    0.0000 C   0  0  0  0  0  0  0  0  0  0  0  0
   10.5351   -7.6458    0.0000 C   0  0  0  0  0  0  0  0  0  0  0  0
    9.8206   -7.2333    0.0000 S   0  0  0  0  0  0  0  0  0  0  0  0
    9.8206   -8.8833    0.0000 C   0  0  0  0  0  0  0  0  0  0  0  0
    9.1061   -8.4707    0.0000 N   0  0  0  0  0  0  0  0  0  0  0  0
    9.1061   -7.6458    0.0000 C   0  0  1  0  0  0  0  0  0  0  0  0
    8.2811   -7.6458    0.0000 C   0  0  1  0  0  0  0  0  0  0  0  0
    8.2811   -8.4707    0.0000 C   0  0  0  0  0  0  0  0  0  0  0  0
    7.5666   -8.8833    0.0000 O   0  0  0  0  0  0  0  0  0  0  0  0
    6.8522   -7.6458    0.0000 C   0  0  0  0  0  0  0  0  0  0  0  0
    6.1377   -7.2333    0.0000 C   0  0  0  0  0  0  0  0  0  0  0  0
    6.8522   -8.4707    0.0000 O   0  0  0  0  0  0  0  0  0  0  0  0
    6.1377   -6.4083    0.0000 N   0  0  0  0  0  0  0  0  0  0  0  0
    5.4232   -7.6458    0.0000 C   0  0  0  0  0  0  0  0  0  0  0  0
    6.8522   -5.9957    0.0000 O   0  0  0  0  0  0  0  0  0  0  0  0
    5.3370   -8.4663    0.0000 C   0  0  0  0  0  0  0  0  0  0  0  0
    4.5300   -8.6378    0.0000 S   0  0  0  0  0  0  0  0  0  0  0  0
    4.1175   -7.9233    0.0000 C   0  0  0  0  0  0  0  0  0  0  0  0
    4.6695   -7.3102    0.0000 N   0  0  0  0  0  0  0  0  0  0  0  0
    9.8206   -9.7083    0.0000 C   0  0  0  0  0  0  0  0  0  0  0  0
    9.1061  -10.1208    0.0000 O   0  0  0  0  0  0  0  0  0  0  0  0
   10.5351  -10.1208    0.0000 O   0  0  0  0  0  0  0  0  0  0  0  0
   11.2496   -8.8833    0.0000 C   0  0  0  0  0  0  0  0  0  0  0  0
   11.9641   -8.4707    0.0000 C   0  0  0  0  0  0  0  0  0  0  0  0
   11.9641   -7.6458    0.0000 C   0  0  0  0  0  0  0  0  0  0  0  0
   12.6315   -7.1609    0.0000 C   0  0  0  0  0  0  0  0  0  0  0  0
   12.3766   -6.3762    0.0000 N   0  0  0  0  0  0  0  0  0  0  0  0
   11.5515   -6.3762    0.0000 C   0  0  0  0  0  0  0  0  0  0  0  0
   11.2966   -7.1609    0.0000 S   0  0  0  0  0  0  0  0  0  0  0  0
   13.4161   -7.4158    0.0000 C   0  0  0  0  0  0  0  0  0  0  0  0
    7.5666   -7.2333    0.0000 N   0  0  0  0  0  0  0  0  0  0  0  0
    3.2970   -7.8371    0.0000 N   0  0  0  0  0  0  0  0  0  0  0  0
    9.1017   -6.8163    0.0000 H   0  0  0  0  0  0  0  0  0  0  0  0
    6.8522   -5.1710    0.0000 C   0  0  0  0  0  0  0  0  0  0  0  0
  1  4  2  0  0  0  0
  2  3  1  0  0  0  0
  3  6  1  0  0  0  0
  5  4  1  0  0  0  0
  5  6  1  0  0  0  0
  6  7  1  0  0  0  0
  7  8  1  0  0  0  0
  8  5  1  0  0  0  0
  8  9  2  0  0  0  0
 10 11  1  0  0  0  0
 10 12  2  0  0  0  0
 11 13  2  0  0  0  0
 11 14  1  0  0  0  0
 13 15  1  0  0  0  0
 14 16  2  0  0  0  0
 16 17  1  0  0  0  0
 17 18  1  0  0  0  0
 18 19  2  0  0  0  0
 19 14  1  0  0  0  0
  4 20  1  0  0  0  0
 20 21  1  0  0  0  0
 20 22  2  0  0  0  0
  1 23  1  0  0  0  0
 23 24  2  0  0  0  0
 24 25  1  0  0  0  0
 25 26  2  0  0  0  0
 26 27  1  0  0  0  0
 27 28  2  0  0  0  0
 28 29  1  0  0  0  0
 29 25  1  0  0  0  0
 26 30  1  0  0  0  0
  1  2  1  0  0  0  0
  7 31  1  1  0  0  0
 31 10  1  0  0  0  0
 18 32  1  0  0  0  0
  6 33  1  6  0  0  0
 15 34  1  0  0  0  0
M  END
> <ID>
CHEBI:59343

> <NAME>
cefditoren

> <DEFINITION>
A broad spectrum, third-generation cephalosporin antibiotic with (Z)-2-(4-methyl-1,3-thiazol-5-yl)ethenyl and (2Z)-2-(2-amino-1,3-thiazol-4-yl)-2-(methoxyimino)acetamido groups at positions 3 and 7, respectively, of the cephem skeleton. Generally administered as its orally absorbed pivaloyloxymethyl ester prodrug, it is used for the treatment of mild to moderate infections caused by susceptible strains of microorganisms in acute bacterial exacerbation of chronic bronchitis, community-acquired pneumonia, pharyngitis/tonsillitis, and uncomplicated skin and skin-structure infections.

> <STAR>
3

> <SYNONYM>
(6R,7R)-7-{[(2Z)-2-(2-amino-1,3-thiazol-4-yl)-2-(methoxyimino)acetyl]amino}-3-[(Z)-2-(4-methyl-1,3-thiazol-5-yl)ethenyl]-8-oxo-5-thia-1-azabicyclo[4.2.0]oct-2-ene-2-carboxylic acid

> <IUPAC_NAME>
7beta-(2Z)-2-(2-amino-1,3-thiazol-4-yl)-2-(methoxyimino)acetamido-3-[(Z)-2-(4-methyl-1,3-thiazol-5-yl)ethenyl]-3,4-didehydrocepham-4-carboxylic acid

> <INN>
cefditoren

> <FORMULA>
C19H18N6O5S3

> <MASS>
506.57800

> <MONOISOTOPIC_MASS>
506.05008

> <CHARGE>
0

> <SMILES>
[H][C@]12SCC(\C=C/c3scnc3C)=C(N1C(=O)[C@H]2NC(=O)C(=N/OC)\c1csc(N)n1)C(O)=O

> <INCHI>
InChI=1S/C19H18N6O5S3/c1-8-11(33-7-21-8)4-3-9-5-31-17-13(16(27)25(17)14(9)18(28)29)23-15(26)12(24-30-2)10-6-32-19(20)22-10/h3-4,6-7,13,17H,5H2,1-2H3,(H2,20,22)(H,23,26)(H,28,29)/b4-3-,24-12-/t13-,17-/m1/s1

> <INCHIKEY>
KMIPKYQIOVAHOP-YLGJWRNMSA-N

> <BEILSTEIN_REGISTRY_NUMBER>
8174297

> <CAS_REGISTRY_NUMBER>
104145-95-1

> <REAXYS_REGISTRY_NUMBER>
8174297

> <CHEMIDPLUS>
104145-95-1

> <DRUGBANK_ACCESSION>
DB01066

> <KEGG_DRUG_ACCESSION>
D07639

> <PUBMED_CITATION>
11687308; 11856949; 22521692; 22675264; 23009290; 25871785; 29017833; 29199418

$$$$

Marvin  05051014482D          

 33 36  0  0  1  0            999 V2000
   15.9961  -11.1117    0.0000 C   0  0  0  0  0  0  0  0  0  0  0  0
   15.9961   -9.7817    0.0000 C   0  0  0  0  0  0  0  0  0  0  0  0
   14.8414   -9.1201    0.0000 S   0  0  0  0  0  0  0  0  0  0  0  0
   14.8414  -11.7868    0.0000 C   0  0  0  0  0  0  0  0  0  0  0  0
   13.6933  -11.1117    0.0000 N   0  0  0  0  0  0  0  0  0  0  0  0
   13.7020   -9.7819    0.0000 C   0  0  0  0  0  0  0  0  0  0  0  0
   12.3654   -9.7732    0.0000 C   0  0  0  0  0  0  0  0  0  0  0  0
   12.3567  -11.1097    0.0000 C   0  0  0  0  0  0  0  0  0  0  0  0
   11.4093  -12.0515    0.0000 O   0  0  0  0  0  0  0  0  0  0  0  0
   14.8414  -13.1235    0.0000 C   0  0  0  0  0  0  0  0  0  0  0  0
   15.9955  -13.7885    0.0000 O   0  0  0  0  0  0  0  0  0  0  0  0
   13.6807  -13.7885    0.0000 O   0  0  0  0  0  0  0  0  0  0  0  0
   17.1531  -11.7783    0.0000 C   0  0  0  0  0  0  0  0  0  0  0  0
   13.7147   -8.4485    0.0000 H   0  0  0  0  0  0  0  0  0  0  0  0
   11.2289   -9.0818    0.0000 N   0  0  0  0  0  0  0  0  0  0  0  0
   10.0774   -9.7472    0.0000 C   0  0  0  0  0  0  0  0  0  0  0  0
    8.9253   -9.0829    0.0000 C   0  0  0  0  0  0  0  0  0  0  0  0
   10.0781  -11.0772    0.0000 O   0  0  0  0  0  0  0  0  0  0  0  0
    8.9248   -7.7529    0.0000 N   0  0  0  0  0  0  0  0  0  0  0  0
   10.0763   -7.0873    0.0000 O   0  0  0  0  0  0  0  0  0  0  0  0
   10.0756   -5.7573    0.0000 C   0  0  0  0  0  0  0  0  0  0  0  0
    7.7739   -9.7483    0.0000 C   0  0  0  0  0  0  0  0  0  0  0  0
    6.5628   -9.2126    0.0000 C   0  0  0  0  0  0  0  0  0  0  0  0
    5.6734  -10.2014    0.0000 S   0  0  0  0  0  0  0  0  0  0  0  0
    6.3390  -11.3530    0.0000 C   0  0  0  0  0  0  0  0  0  0  0  0
    7.6395  -11.0757    0.0000 N   0  0  0  0  0  0  0  0  0  0  0  0
    5.7986  -12.5683    0.0000 N   0  0  0  0  0  0  0  0  0  0  0  0
   18.3043  -11.1122    0.0000 N   0  3  0  0  0  0  0  0  0  0  0  0
   19.5220  -11.6598    0.0000 C   0  0  0  0  0  0  0  0  0  0  0  0
   20.4111  -10.6706    0.0000 C   0  0  0  0  0  0  0  0  0  0  0  0
   19.7450   -9.5194    0.0000 C   0  0  0  0  0  0  0  0  0  0  0  0
   18.4444   -9.7973    0.0000 C   0  0  0  0  0  0  0  0  0  0  0  0
   18.3128  -12.4432    0.0000 C   0  0  0  0  0  0  0  0  0  0  0  0
 15 16  1  0  0  0  0
  1  4  2  0  0  0  0
 16 17  1  0  0  0  0
  2  3  1  0  0  0  0
 16 18  2  0  0  0  0
  3  6  1  0  0  0  0
 17 19  2  0  0  0  0
  5  4  1  0  0  0  0
 19 20  1  0  0  0  0
  5  6  1  0  0  0  0
 20 21  1  0  0  0  0
  6  7  1  0  0  0  0
 17 22  1  0  0  0  0
 22 23  2  0  0  0  0
  7  8  1  0  0  0  0
  8  5  1  0  0  0  0
  8  9  2  0  0  0  0
  4 10  1  0  0  0  0
 23 24  1  0  0  0  0
 24 25  1  0  0  0  0
 25 26  2  0  0  0  0
 26 22  1  0  0  0  0
 10 11  1  0  0  0  0
 25 27  1  0  0  0  0
 10 12  2  0  0  0  0
 13 28  1  0  0  0  0
 28 29  1  0  0  0  0
  1 13  1  0  0  0  0
  6 14  1  6  0  0  0
  7 15  1  1  0  0  0
 29 30  1  0  0  0  0
 30 31  1  0  0  0  0
 31 32  1  0  0  0  0
 32 28  1  0  0  0  0
  1  2  1  0  0  0  0
 28 33  1  0  0  0  0
M  CHG  1  28   1
M  END
> <ID>
CHEBI:59349

> <NAME>
cefepime(1+)

> <DEFINITION>
The conjugate acid of cefepime.

> <STAR>
3

> <SYNONYM>
cefepime conjugate acid

> <IUPAC_NAME>
7beta-[(2Z)-2-(2-amino-1,3-thiazol-4-yl)-2-(methoxyimino)acetamido]-3-[(1-methylpyrrolidinium-1-yl)methyl]-3,4-didehydrocepham-4-carboxylic acid; 1-{[(6R,7R)-7-{[(2Z)-2-(2-amino-1,3-thiazol-4-yl)-2-(methoxyimino)acetyl]amino}-2-carboxy-8-oxo-5-thia-1-azabicyclo[4.2.0]oct-2-en-3-yl]methyl}-1-methylpyrrolidinium

> <FORMULA>
C19H25N6O5S2

> <MASS>
481.56900

> <MONOISOTOPIC_MASS>
481.13224

> <CHARGE>
1

> <SMILES>
[H][C@]12SCC(C[N+]3(C)CCCC3)=C(N1C(=O)[C@H]2NC(=O)C(=N/OC)\c1csc(N)n1)C(O)=O

> <INCHI>
InChI=1S/C19H24N6O5S2/c1-25(5-3-4-6-25)7-10-8-31-17-13(16(27)24(17)14(10)18(28)29)22-15(26)12(23-30-2)11-9-32-19(20)21-11/h9,13,17H,3-8H2,1-2H3,(H3-,20,21,22,26,28,29)/p+1/b23-12-/t13-,17-/m1/s1

> <INCHIKEY>
HVFLCNVBZFFHBT-ZKDACBOMSA-O

> <BEILSTEIN_REGISTRY_NUMBER>
5196242

$$$$

Marvin  05121017072D          

 34 36  0  0  1  0            999 V2000
   15.4248   -3.8865    0.0000 C   0  0  1  0  0  0  0  0  0  0  0  0
   15.4248   -4.7115    0.0000 C   0  0  1  0  0  0  0  0  0  0  0  0
   14.7104   -3.4740    0.0000 O   0  0  0  0  0  0  0  0  0  0  0  0
   14.7104   -5.1240    0.0000 C   0  0  2  0  0  0  0  0  0  0  0  0
   13.9959   -3.8865    0.0000 C   0  0  1  0  0  0  0  0  0  0  0  0
   13.9959   -4.7115    0.0000 C   0  0  1  0  0  0  0  0  0  0  0  0
   16.1393   -3.4740    0.0000 O   0  0  0  0  0  0  0  0  0  0  0  0
   16.1393   -5.1240    0.0000 O   0  0  0  0  0  0  0  0  0  0  0  0
   14.7103   -5.9490    0.0000 O   0  0  0  0  0  0  0  0  0  0  0  0
   13.2814   -5.1240    0.0000 O   0  0  0  0  0  0  0  0  0  0  0  0
   13.2814   -3.4740    0.0000 C   0  0  0  0  0  0  0  0  0  0  0  0
   12.5669   -3.8865    0.0000 O   0  0  0  0  0  0  0  0  0  0  0  0
   12.5670   -5.5365    0.0000 C   0  0  1  0  0  0  0  0  0  0  0  0
   12.5670   -6.3615    0.0000 C   0  0  1  0  0  0  0  0  0  0  0  0
   11.8524   -5.1240    0.0000 O   0  0  0  0  0  0  0  0  0  0  0  0
   11.8524   -6.7740    0.0000 C   0  0  2  0  0  0  0  0  0  0  0  0
   11.1380   -5.5365    0.0000 C   0  0  1  0  0  0  0  0  0  0  0  0
   11.1380   -6.3615    0.0000 C   0  0  2  0  0  0  0  0  0  0  0  0
   13.2814   -6.7741    0.0000 O   0  0  0  0  0  0  0  0  0  0  0  0
   11.8524   -7.5990    0.0000 O   0  0  0  0  0  0  0  0  0  0  0  0
   10.4235   -6.7740    0.0000 O   0  0  0  0  0  0  0  0  0  0  0  0
   10.4235   -5.1240    0.0000 C   0  0  0  0  0  0  0  0  0  0  0  0
    9.7090   -5.5365    0.0000 O   0  0  0  0  0  0  0  0  0  0  0  0
   11.1379   -8.0116    0.0000 C   0  0  2  0  0  0  0  0  0  0  0  0
   11.1379   -8.8366    0.0000 C   0  0  1  0  0  0  0  0  0  0  0  0
   10.4234   -7.5991    0.0000 O   0  0  0  0  0  0  0  0  0  0  0  0
   10.4234   -9.2491    0.0000 C   0  0  2  0  0  0  0  0  0  0  0  0
    9.7090   -8.0116    0.0000 C   0  0  1  0  0  0  0  0  0  0  0  0
    9.7090   -8.8366    0.0000 C   0  0  2  0  0  0  0  0  0  0  0  0
   11.8524   -9.2491    0.0000 O   0  0  0  0  0  0  0  0  0  0  0  0
   10.4234  -10.0741    0.0000 O   0  0  0  0  0  0  0  0  0  0  0  0
    8.9945   -9.2490    0.0000 O   0  0  0  0  0  0  0  0  0  0  0  0
    8.9945   -7.5991    0.0000 C   0  0  0  0  0  0  0  0  0  0  0  0
    8.2800   -8.0116    0.0000 O   0  0  0  0  0  0  0  0  0  0  0  0
  1  2  1  0  0  0  0
  1  3  1  0  0  0  0
  2  4  1  0  0  0  0
  3  5  1  0  0  0  0
  4  6  1  0  0  0  0
  5  6  1  0  0  0  0
  1  7  1  1  0  0  0
  2  8  1  6  0  0  0
  4  9  1  1  0  0  0
  6 10  1  6  0  0  0
  5 11  1  1  0  0  0
 12 11  1  0  0  0  0
 13 14  1  0  0  0  0
 13 15  1  0  0  0  0
 14 16  1  0  0  0  0
 15 17  1  0  0  0  0
 16 18  1  0  0  0  0
 17 18  1  0  0  0  0
 13 10  1  1  0  0  0
 14 19  1  6  0  0  0
 16 20  1  1  0  0  0
 18 21  1  1  0  0  0
 17 22  1  1  0  0  0
 23 22  1  0  0  0  0
 24 25  1  0  0  0  0
 24 26  1  0  0  0  0
 25 27  1  0  0  0  0
 26 28  1  0  0  0  0
 27 29  1  0  0  0  0
 28 29  1  0  0  0  0
 24 20  1  6  0  0  0
 25 30  1  6  0  0  0
 27 31  1  1  0  0  0
 29 32  1  1  0  0  0
 28 33  1  1  0  0  0
 34 33  1  0  0  0  0
M  END
> <ID>
CHEBI:59443

> <NAME>
alpha-D-Galp-(1->3)-beta-D-Galp-(1->4)-beta-D-Glcp

> <DEFINITION>
An α-D-Gal-(1→3)-β-D-Gal-(1→4)-D-Glc having β-configuration at the reducing end anomeric centre.

> <STAR>
3

> <SYNONYM>
Galalpha1-3Galbeta1-4Glcbeta; Gala1-3Galb1-4Glcb; alphaGal(1->3)betaGal(1->4)betaGlc; alpha-D-galactosyl-(1->3)-beta-D-galactosyl-(1->4)-beta-D-glucose; alpha-D-Gal-(1->3)-beta-D-Gal-(1->4)-beta-D-Glc

> <IUPAC_NAME>
alpha-D-galactopyranosyl-(1->3)-beta-D-galactopyranosyl-(1->4)-beta-D-glucopyranose

> <FORMULA>
C18H32O16

> <MASS>
504.43710

> <MONOISOTOPIC_MASS>
504.16903

> <CHARGE>
0

> <SMILES>
OC[C@H]1O[C@H](O[C@H]2[C@@H](O)[C@@H](CO)O[C@@H](O[C@@H]3[C@@H](CO)O[C@@H](O)[C@H](O)[C@H]3O)[C@@H]2O)[C@H](O)[C@@H](O)[C@H]1O

> <INCHI>
InChI=1S/C18H32O16/c19-1-4-7(22)9(24)12(27)17(31-4)34-15-8(23)5(2-20)32-18(13(15)28)33-14-6(3-21)30-16(29)11(26)10(14)25/h4-29H,1-3H2/t4-,5-,6-,7+,8+,9+,10-,11-,12-,13-,14-,15+,16-,17-,18+/m1/s1

> <INCHIKEY>
ODDPRQJTYDIWJU-MDSPGJTKSA-N

> <BEILSTEIN_REGISTRY_NUMBER>
7343634

> <REAXYS_REGISTRY_NUMBER>
7343634

> <PUBMED_CITATION>
11792992; 11844492; 19443021; 25568069; 31537530; 7521740; 7982214; 9458010

$$$$

Marvin  06101016482D          

 26 27  0  0  0  0            999 V2000
   11.1021   -4.4231    0.0000 C   0  0  0  0  0  0  0  0  0  0  0  0
   10.3875   -4.8356    0.0000 C   0  0  0  0  0  0  0  0  0  0  0  0
   10.3875   -5.6607    0.0000 C   0  0  0  0  0  0  0  0  0  0  0  0
   11.1021   -6.0732    0.0000 C   0  0  0  0  0  0  0  0  0  0  0  0
   11.8164   -5.6607    0.0000 C   0  0  0  0  0  0  0  0  0  0  0  0
   11.8164   -4.8356    0.0000 C   0  0  0  0  0  0  0  0  0  0  0  0
    9.6731   -6.0731    0.0000 N   0  0  0  0  0  0  0  0  0  0  0  0
    8.9587   -5.6606    0.0000 N   0  0  0  0  0  0  0  0  0  0  0  0
    8.2442   -6.0731    0.0000 C   0  0  0  0  0  0  0  0  0  0  0  0
    7.5768   -5.5882    0.0000 N   0  0  0  0  0  0  0  0  0  0  0  0
    6.9093   -6.0731    0.0000 C   0  0  0  0  0  0  0  0  0  0  0  0
    7.1643   -6.8577    0.0000 C   0  0  0  0  0  0  0  0  0  0  0  0
    7.9893   -6.8577    0.0000 S   0  0  0  0  0  0  0  0  0  0  0  0
    6.7518   -7.5721    0.0000 N   0  3  0  0  0  0  0  0  0  0  0  0
    5.9268   -7.5721    0.0000 O   0  0  0  0  0  0  0  0  0  0  0  0
    7.1643   -8.2866    0.0000 O   0  5  0  0  0  0  0  0  0  0  0  0
    9.6731   -4.4231    0.0000 C   0  0  0  0  0  0  0  0  0  0  0  0
   12.5309   -4.4231    0.0000 N   0  0  0  0  0  0  0  0  0  0  0  0
   12.5309   -3.5981    0.0000 C   0  0  0  0  0  0  0  0  0  0  0  0
   13.2454   -3.1856    0.0000 C   0  0  0  0  0  0  0  0  0  0  0  0
   13.2454   -4.8356    0.0000 C   0  0  0  0  0  0  0  0  0  0  0  0
   13.2454   -5.6606    0.0000 C   0  0  0  0  0  0  0  0  0  0  0  0
   13.2454   -2.3606    0.0000 O   0  0  0  0  0  0  0  0  0  0  0  0
   13.9599   -1.9482    0.0000 C   0  0  0  0  0  0  0  0  0  0  0  0
   13.9599   -1.1232    0.0000 O   0  0  0  0  0  0  0  0  0  0  0  0
   14.6743   -2.3608    0.0000 C   0  0  0  0  0  0  0  0  0  0  0  0
  1  2  1  0  0  0  0
  2  3  2  0  0  0  0
  3  4  1  0  0  0  0
  4  5  2  0  0  0  0
  5  6  1  0  0  0  0
  1  6  2  0  0  0  0
  7  3  1  4  0  0  0
  7  8  2  0  0  0  0
  8  9  1  0  0  0  0
 13  9  1  0  0  0  0
 10  9  2  0  0  0  0
 10 11  1  0  0  0  0
 11 12  2  0  0  0  0
 12 13  1  0  0  0  0
 12 14  1  0  0  0  0
 14 15  2  0  0  0  0
 14 16  1  0  0  0  0
  2 17  1  0  0  0  0
  6 18  1  0  0  0  0
 18 19  1  0  0  0  0
 19 20  1  0  0  0  0
 18 21  1  0  0  0  0
 21 22  1  0  0  0  0
 20 23  1  0  0  0  0
 23 24  1  0  0  0  0
 24 25  2  0  0  0  0
 24 26  1  0  0  0  0
M  CHG  2  14   1  16  -1
M  END
> <ID>
CHEBI:59605

> <NAME>
Disperse Blue 124

> <DEFINITION>
A monoazo compound consisting of diazene with a 5-nitrothiazol-2-yl group attached to one nitrogen and a substituted 4-aminophenyl group attached to the other; used as a dye standard for the assay of allergy-releasing dyes in textiles.

> <STAR>
3

> <SYNONYM>
C.I. Disperse Blue 124; 2-(N-ethyl-4-((5-nitrothiazol-2-yl)azo)-m-toluidino)ethyl acetate

> <IUPAC_NAME>
2-(ethyl{3-methyl-4-[(5-nitro-1,3-thiazol-2-yl)diazenyl]phenyl}amino)ethyl acetate

> <FORMULA>
C16H19N5O4S

> <MASS>
377.41800

> <MONOISOTOPIC_MASS>
377.11578

> <CHARGE>
0

> <SMILES>
CCN(CCOC(C)=O)c1ccc(N=Nc2ncc(s2)[N+]([O-])=O)c(C)c1

> <INCHI>
InChI=1S/C16H19N5O4S/c1-4-20(7-8-25-12(3)22)13-5-6-14(11(2)9-13)18-19-16-17-10-15(26-16)21(23)24/h5-6,9-10H,4,7-8H2,1-3H3

> <INCHIKEY>
HMAJVAFLGGPIPN-UHFFFAOYSA-N

> <CAS_REGISTRY_NUMBER>
15141-18-1

> <CHEMIDPLUS>
61951-51-7

> <PUBMED_CITATION>
15462465; 21616561

$$$$

Marvin  06111012012D          

 20 21  0  0  0  0            999 V2000
   13.6119   -4.8570    0.0000 O   0  0  0  0  0  0  0  0  0  0  0  0
    9.3250   -5.6818    0.0000 C   0  0  0  0  0  0  0  0  0  0  0  0
    8.6105   -6.0943    0.0000 C   0  0  0  0  0  0  0  0  0  0  0  0
    8.6105   -6.9193    0.0000 C   0  0  0  0  0  0  0  0  0  0  0  0
    9.3250   -7.3320    0.0000 C   0  0  0  0  0  0  0  0  0  0  0  0
   10.0394   -6.0943    0.0000 C   0  0  0  0  0  0  0  0  0  0  0  0
   10.7538   -5.6818    0.0000 N   0  0  0  0  0  0  0  0  0  0  0  0
   11.4685   -6.0943    0.0000 C   0  0  0  0  0  0  0  0  0  0  0  0
   11.4685   -6.9193    0.0000 C   0  0  0  0  0  0  0  0  0  0  0  0
   12.1829   -7.3320    0.0000 C   0  0  0  0  0  0  0  0  0  0  0  0
   12.8974   -6.9193    0.0000 C   0  0  0  0  0  0  0  0  0  0  0  0
   12.8974   -6.0943    0.0000 C   0  0  0  0  0  0  0  0  0  0  0  0
   10.0394   -6.9193    0.0000 C   0  0  0  0  0  0  0  0  0  0  0  0
   10.7538   -7.3320    0.0000 Cl  0  0  0  0  0  0  0  0  0  0  0  0
   12.1829   -5.6818    0.0000 C   0  0  0  0  0  0  0  0  0  0  0  0
    9.3250   -4.8567    0.0000 Cl  0  0  0  0  0  0  0  0  0  0  0  0
   12.1830   -4.8570    0.0000 C   0  0  0  0  0  0  0  0  0  0  0  0
   12.8975   -3.6193    0.0000 O   0  0  0  0  0  0  0  0  0  0  0  0
   12.8975   -4.4443    0.0000 C   0  0  0  0  0  0  0  0  0  0  0  0
   13.6119   -7.3318    0.0000 O   0  0  0  0  0  0  0  0  0  0  0  0
  2 16  1  0  0  0  0
  2  3  2  0  0  0  0
  4  3  1  0  0  0  0
  5  4  2  0  0  0  0
  2  6  1  0  0  0  0
  6  7  1  0  0  0  0
  7  8  1  0  0  0  0
  9  8  2  0  0  0  0
 10  9  1  0  0  0  0
 11 10  2  0  0  0  0
 12 11  1  0  0  0  0
 13  5  1  0  0  0  0
  6 13  2  0  0  0  0
 13 14  1  0  0  0  0
 15  8  1  0  0  0  0
 15 12  2  0  0  0  0
 15 17  1  0  0  0  0
 17 19  1  0  0  0  0
 19 18  2  0  0  0  0
 19  1  1  0  0  0  0
 11 20  1  0  0  0  0
M  END
> <ID>
CHEBI:59612

> <NAME>
5-hydroxydiclofenac

> <DEFINITION>
A monocarboxylic acid that is the 5-hydroxylated metabolite of diclofenac.

> <STAR>
3

> <SYNONYM>
5-OH-DCF; 5-OH DCF; 5-hydroxy diclofenac; 2-[(2,6-Dichloroanilino)-5-hydroxyphenyl]acetic acid

> <IUPAC_NAME>
{2-[(2,6-dichlorophenyl)amino]-5-hydroxyphenyl}acetic acid

> <FORMULA>
C14H11Cl2NO3

> <MASS>
312.14800

> <MONOISOTOPIC_MASS>
311.01160

> <CHARGE>
0

> <SMILES>
OC(=O)Cc1cc(O)ccc1Nc1c(Cl)cccc1Cl

> <INCHI>
InChI=1S/C14H11Cl2NO3/c15-10-2-1-3-11(16)14(10)17-12-5-4-9(18)6-8(12)7-13(19)20/h1-6,17-18H,7H2,(H,19,20)

> <INCHIKEY>
VNQURRWYKFZKJZ-UHFFFAOYSA-N

> <BEILSTEIN_REGISTRY_NUMBER>
4199419

> <CAS_REGISTRY_NUMBER>
69002-84-2

> <REAXYS_REGISTRY_NUMBER>
4199419

> <CHEMIDPLUS>
69002-84-2

> <PUBMED_CITATION>
10027798; 10027801; 10449188; 12734606; 14609740; 15139759; 15265128; 17123753; 18548238; 18800545; 2118185; 23208430; 28166217; 7479564; 9114978; 9862754

$$$$

Marvin  06111012162D          

 20 21  0  0  0  0            999 V2000
   13.6119   -4.8570    0.0000 O   0  0  0  0  0  0  0  0  0  0  0  0
    9.3250   -5.6818    0.0000 C   0  0  0  0  0  0  0  0  0  0  0  0
    8.6105   -6.0943    0.0000 C   0  0  0  0  0  0  0  0  0  0  0  0
    8.6105   -6.9193    0.0000 C   0  0  0  0  0  0  0  0  0  0  0  0
    9.3250   -7.3320    0.0000 C   0  0  0  0  0  0  0  0  0  0  0  0
   10.0394   -6.0943    0.0000 C   0  0  0  0  0  0  0  0  0  0  0  0
   10.7538   -5.6818    0.0000 N   0  0  0  0  0  0  0  0  0  0  0  0
   11.4685   -6.0943    0.0000 C   0  0  0  0  0  0  0  0  0  0  0  0
   11.4685   -6.9193    0.0000 C   0  0  0  0  0  0  0  0  0  0  0  0
   12.1829   -7.3320    0.0000 C   0  0  0  0  0  0  0  0  0  0  0  0
   12.8974   -6.9193    0.0000 C   0  0  0  0  0  0  0  0  0  0  0  0
   12.8974   -6.0943    0.0000 C   0  0  0  0  0  0  0  0  0  0  0  0
   10.0394   -6.9193    0.0000 C   0  0  0  0  0  0  0  0  0  0  0  0
   10.7538   -7.3320    0.0000 Cl  0  0  0  0  0  0  0  0  0  0  0  0
   12.1829   -5.6818    0.0000 C   0  0  0  0  0  0  0  0  0  0  0  0
    9.3250   -4.8567    0.0000 Cl  0  0  0  0  0  0  0  0  0  0  0  0
   12.1830   -4.8570    0.0000 C   0  0  0  0  0  0  0  0  0  0  0  0
   12.8975   -3.6193    0.0000 O   0  0  0  0  0  0  0  0  0  0  0  0
   12.8975   -4.4443    0.0000 C   0  0  0  0  0  0  0  0  0  0  0  0
    7.8960   -7.3318    0.0000 O   0  0  0  0  0  0  0  0  0  0  0  0
  2 16  1  0  0  0  0
  2  3  2  0  0  0  0
  4  3  1  0  0  0  0
  5  4  2  0  0  0  0
  2  6  1  0  0  0  0
  6  7  1  0  0  0  0
  7  8  1  0  0  0  0
  9  8  2  0  0  0  0
 10  9  1  0  0  0  0
 11 10  2  0  0  0  0
 12 11  1  0  0  0  0
 13  5  1  0  0  0  0
  6 13  2  0  0  0  0
 13 14  1  0  0  0  0
 15  8  1  0  0  0  0
 15 12  2  0  0  0  0
 15 17  1  0  0  0  0
 17 19  1  0  0  0  0
 19 18  2  0  0  0  0
 19  1  1  0  0  0  0
  4 20  1  0  0  0  0
M  END
> <ID>
CHEBI:59613

> <NAME>
4'-hydroxydiclofenac

> <DEFINITION>
A monocarboxylic acid that is the 4'-hydroxylated metabolite of diclofenac.

> <STAR>
3

> <SYNONYM>
4'-OH DCF; 4'-hydroxy diclofenac; (o-(2,6-Dichloro-4-hydroxyanilino)phenyl)acetic acid

> <IUPAC_NAME>
{2-[(2,6-dichloro-4-hydroxyphenyl)amino]phenyl}acetic acid

> <FORMULA>
C14H11Cl2NO3

> <MASS>
312.14800

> <MONOISOTOPIC_MASS>
311.01160

> <CHARGE>
0

> <SMILES>
OC(=O)Cc1ccccc1Nc1c(Cl)cc(O)cc1Cl

> <INCHI>
InChI=1S/C14H11Cl2NO3/c15-10-6-9(18)7-11(16)14(10)17-12-4-2-1-3-8(12)5-13(19)20/h1-4,6-7,17-18H,5H2,(H,19,20)

> <INCHIKEY>
KGVXVPRLBMWZLG-UHFFFAOYSA-N

> <BEILSTEIN_REGISTRY_NUMBER>
4198042

> <CAS_REGISTRY_NUMBER>
64118-84-9

> <REAXYS_REGISTRY_NUMBER>
4198042

> <CHEMIDPLUS>
64118-84-9

> <PUBMED_CITATION>
10027798; 10709153; 10807502; 12966366; 14609740; 15139759; 15265128; 15455182; 17123753; 18548238; 2118185; 9226412; 9862754

$$$$

Marvin  06141009282D          

 12 12  0  0  0  0            999 V2000
   -0.5893    1.3848    0.0000 C   0  0  0  0  0  0  0  0  0  0  0  0
   -1.3038    0.9723    0.0000 C   0  0  0  0  0  0  0  0  0  0  0  0
   -1.3038    0.1473    0.0000 C   0  0  0  0  0  0  0  0  0  0  0  0
   -0.5893   -0.2652    0.0000 C   0  0  2  0  0  0  0  0  0  0  0  0
    0.1252    0.1473    0.0000 C   0  0  0  0  0  0  0  0  0  0  0  0
    0.1252    0.9723    0.0000 C   0  0  0  0  0  0  0  0  0  0  0  0
   -0.5893    2.2098    0.0000 C   0  0  0  0  0  0  0  0  0  0  0  0
    0.8397    1.3848    0.0000 O   0  0  0  0  0  0  0  0  0  0  0  0
    1.5541    0.9723    0.0000 O   0  0  0  0  0  0  0  0  0  0  0  0
   -0.5893   -1.0902    0.0000 C   0  0  0  0  0  0  0  0  0  0  0  0
   -1.3038   -1.5027    0.0000 C   0  0  0  0  0  0  0  0  0  0  0  0
    0.1252   -1.5027    0.0000 C   0  0  0  0  0  0  0  0  0  0  0  0
  1  2  1  0  0  0  0
  1  6  1  0  0  0  0
  2  3  1  0  0  0  0
  3  4  1  0  0  0  0
  4  5  1  0  0  0  0
  5  6  1  0  0  0  0
  1  7  1  0  0  0  0
  6  8  1  0  0  0  0
  8  9  1  0  0  0  0
  4 10  1  6  0  0  0
 10 11  1  0  0  0  0
 10 12  2  0  0  0  0
M  END
> <ID>
CHEBI:59623

> <NAME>
(5R)-5-isopropenyl-2-methylcyclohexane 1-hydroperoxide

> <DEFINITION>
A peroxol (hydroperoxide) derived from (R)-limonene.

> <STAR>
3

> <SYNONYM>
(5R)-5-isopropenyl-2-methylcyclohexane-1-hydroperoxide; (5R)-2-methyl-5-(prop-1-en-2-yl)cyclohexyl hydroperoxide

> <IUPAC_NAME>
(5R)-2-methyl-5-(prop-1-en-2-yl)cyclohexane-1-peroxol

> <FORMULA>
C10H18O2

> <MASS>
170.24870

> <MONOISOTOPIC_MASS>
170.13068

> <CHARGE>
0

> <SMILES>
CC1CC[C@H](CC1OO)C(C)=C

> <INCHI>
InChI=1S/C10H18O2/c1-7(2)9-5-4-8(3)10(6-9)12-11/h8-11H,1,4-6H2,2-3H3/t8?,9-,10?/m1/s1

> <INCHIKEY>
LCPSGOHUUMKVEZ-HWOCKDDLSA-N

> <REAXYS_REGISTRY_NUMBER>
21053497

> <PUBMED_CITATION>
20163165

$$$$

Marvin  06141010062D          

 13 13  0  0  1  0            999 V2000
   11.3737   -3.9153    0.0000 C   0  0  0  0  0  0  0  0  0  0  0  0
   10.6592   -4.3278    0.0000 C   0  0  0  0  0  0  0  0  0  0  0  0
   10.6592   -5.1528    0.0000 C   0  0  0  0  0  0  0  0  0  0  0  0
   11.3737   -5.5653    0.0000 C   0  0  2  0  0  0  0  0  0  0  0  0
   12.0882   -5.1528    0.0000 C   0  0  0  0  0  0  0  0  0  0  0  0
   12.0882   -4.3278    0.0000 C   0  0  0  0  0  0  0  0  0  0  0  0
   11.3737   -3.0903    0.0000 C   0  0  0  0  0  0  0  0  0  0  0  0
   11.3737   -6.3903    0.0000 C   0  0  0  0  0  0  0  0  0  0  0  0
   10.6592   -6.8027    0.0000 C   0  0  0  0  0  0  0  0  0  0  0  0
   12.0882   -6.8027    0.0000 C   0  0  0  0  0  0  0  0  0  0  0  0
   12.5006   -3.6133    0.0000 C   0  0  0  0  0  0  0  0  0  0  0  0
   12.9131   -4.3278    0.0000 O   0  0  0  0  0  0  0  0  0  0  0  0
   13.3256   -5.0423    0.0000 O   0  0  0  0  0  0  0  0  0  0  0  0
  1  2  1  0  0  0  0
  1  6  1  0  0  0  0
  2  3  1  0  0  0  0
  3  4  1  0  0  0  0
  4  5  1  0  0  0  0
  5  6  1  0  0  0  0
  1  7  1  0  0  0  0
  4  8  1  6  0  0  0
  8  9  1  0  0  0  0
  8 10  2  0  0  0  0
 11  6  1  0  0  0  0
  6 12  1  0  0  0  0
 12 13  1  0  0  0  0
M  END
> <ID>
CHEBI:59624

> <NAME>
(5R)-5-isopropenyl-1,2-dimethylcyclohexane 1-hydroperoxide

> <DEFINITION>
A peroxol (hydroperoxide) obtained from (−)-carvone via sequential methylenation and hydroperoxidation.

> <STAR>
3

> <SYNONYM>
(5R)-5-isopropenyl-1,2-dimethylcyclohexane-1-hydroperoxide; (5R)-1,2-dimethyl-5-(prop-1-en-2-yl)cyclohexyl hydroperoxide

> <IUPAC_NAME>
(5R)-1,2-dimethyl-5-(prop-1-en-2-yl)cyclohexane-1-peroxol

> <FORMULA>
C11H20O2

> <MASS>
184.27530

> <MONOISOTOPIC_MASS>
184.14633

> <CHARGE>
0

> <SMILES>
CC1CC[C@H](CC1(C)OO)C(C)=C

> <INCHI>
InChI=1S/C11H20O2/c1-8(2)10-6-5-9(3)11(4,7-10)13-12/h9-10,12H,1,5-7H2,2-4H3/t9?,10-,11?/m1/s1

> <INCHIKEY>
PAWAQGFGYJWLSH-HSOILSAZSA-N

> <REAXYS_REGISTRY_NUMBER>
21053500

> <PUBMED_CITATION>
20163165

$$$$

Marvin  06141012152D          

 12 12  0  0  0  0            999 V2000
    8.7319   -4.1371    0.0000 C   0  0  0  0  0  0  0  0  0  0  0  0
    8.7319   -4.9620    0.0000 C   0  0  0  0  0  0  0  0  0  0  0  0
    9.4464   -5.3745    0.0000 C   0  0  0  0  0  0  0  0  0  0  0  0
   10.1609   -4.9620    0.0000 C   0  0  0  0  0  0  0  0  0  0  0  0
   10.1609   -4.1371    0.0000 C   0  0  0  0  0  0  0  0  0  0  0  0
    9.4464   -6.1996    0.0000 C   0  0  0  0  0  0  0  0  0  0  0  0
    8.7319   -6.6121    0.0000 C   0  0  0  0  0  0  0  0  0  0  0  0
   10.1609   -6.6121    0.0000 C   0  0  0  0  0  0  0  0  0  0  0  0
    9.4464   -3.7246    0.0000 C   0  0  0  0  0  0  0  0  0  0  0  0
    9.0340   -3.0101    0.0000 C   0  0  0  0  0  0  0  0  0  0  0  0
    9.8590   -3.0101    0.0000 O   0  0  0  0  0  0  0  0  0  0  0  0
   10.6840   -3.0101    0.0000 O   0  0  0  0  0  0  0  0  0  0  0  0
  9  1  1  0  0  0  0
  9  5  1  0  0  0  0
  1  2  1  0  0  0  0
  2  3  1  0  0  0  0
  3  4  1  0  0  0  0
  4  5  1  0  0  0  0
  3  6  1  0  0  0  0
  6  7  1  0  0  0  0
  6  8  1  0  0  0  0
  9 10  1  0  0  0  0
 11  9  1  0  0  0  0
 11 12  1  0  0  0  0
M  END
> <ID>
CHEBI:59627

> <NAME>
4-isopropyl-1-methylcyclohexane 1-hydroperoxide

> <DEFINITION>
A peroxol (hydroperoxide) that is the 1-hydroperoxy derivative of p-menthane.

> <STAR>
3

> <SYNONYM>
4-isopropyl-1-methylcyclohexane-1-hydroperoxide; 1-methyl-4-(1-methylethyl)cyclohexyl hydroperoxide

> <IUPAC_NAME>
4-propan-2-yl-1-methylcyclohexyl hydroperoxide

> <FORMULA>
C10H20O2

> <MASS>
172.26460

> <MONOISOTOPIC_MASS>
172.14633

> <CHARGE>
0

> <SMILES>
CC(C)C1CCC(C)(CC1)OO

> <INCHI>
InChI=1S/C10H20O2/c1-8(2)9-4-6-10(3,12-11)7-5-9/h8-9,11H,4-7H2,1-3H3

> <INCHIKEY>
SGYLMBSLEMLUSN-UHFFFAOYSA-N

> <PUBMED_CITATION>
20163165

$$$$

Mrv0541 01051517382D          

 37 40  0  0  1  0            999 V2000
    1.1000   -1.8635    0.0000 C   0  0  2  0  0  0  0  0  0  0  0  0
    2.0317   -2.7500    0.0000 N   0  0  0  0  0  0  0  0  0  0  0  0
    1.1000   -2.7500    0.0000 C   0  0  0  0  0  0  0  0  0  0  0  0
    2.0317   -1.8635    0.0000 C   0  0  2  0  0  0  0  0  0  0  0  0
    0.3982   -1.8635    0.0000 N   0  0  0  0  0  0  0  0  0  0  0  0
    4.9172   -1.8963    0.0000 C   0  0  0  0  0  0  0  0  0  0  0  0
    2.7213   -3.1441    0.0000 C   0  0  0  0  0  0  0  0  0  0  0  0
    5.5903   -1.4530    0.0000 N   0  0  0  0  0  0  0  0  0  0  0  0
    4.2769   -1.4407    0.0000 N   0  0  0  0  0  0  0  0  0  0  0  0
   -0.2914   -1.3914    0.0000 C   0  0  0  0  0  0  0  0  0  0  0  0
    4.5313   -0.6321    0.0000 N   0  0  0  0  0  0  0  0  0  0  0  0
    5.3317   -0.6280    0.0000 N   0  0  0  0  0  0  0  0  0  0  0  0
    3.4888   -2.7377    0.0000 C   0  0  0  0  0  0  0  0  0  0  0  0
    2.7213   -1.4530    0.0000 O   0  0  0  0  0  0  0  0  0  0  0  0
   -0.9440   -1.7650    0.0000 C   0  0  0  0  0  0  0  0  0  0  0  0
    2.7213   -3.9691    0.0000 C   0  0  0  0  0  0  0  0  0  0  0  0
   -1.6459   -1.3463    0.0000 C   0  0  0  0  0  0  0  0  0  0  0  0
    4.9172   -2.7008    0.0000 S   0  0  0  0  0  0  0  0  0  0  0  0
    3.4888   -1.8635    0.0000 C   0  0  0  0  0  0  0  0  0  0  0  0
    0.5952   -3.3165    0.0000 O   0  0  0  0  0  0  0  0  0  0  0  0
    4.2030   -3.0948    0.0000 C   0  0  0  0  0  0  0  0  0  0  0  0
   -0.9440   -2.6228    0.0000 C   0  0  0  0  0  0  0  0  0  0  0  0
    1.1000   -1.1821    0.0000 O   0  0  0  0  0  0  0  0  0  0  0  0
   -0.2914   -0.5706    0.0000 O   0  0  0  0  0  0  0  0  0  0  0  0
    3.4273   -4.3877    0.0000 O   0  0  0  0  0  0  0  0  0  0  0  0
   -2.3847   -1.7157    0.0000 O   0  0  0  0  0  0  0  0  0  0  0  0
   -1.6582   -3.0086    0.0000 C   0  0  0  0  0  0  0  0  0  0  0  0
   -0.2216   -2.9922    0.0000 C   0  0  0  0  0  0  0  0  0  0  0  0
    6.2224   -1.8635    0.0000 C   0  0  0  0  0  0  0  0  0  0  0  0
    2.0605   -4.3877    0.0000 O   0  0  0  0  0  0  0  0  0  0  0  0
   -1.6459   -0.5295    0.0000 O   0  0  0  0  0  0  0  0  0  0  0  0
   -0.9440   -4.2646    0.0000 C   0  0  0  0  0  0  0  0  0  0  0  0
   -0.2216   -3.8295    0.0000 C   0  0  0  0  0  0  0  0  0  0  0  0
   -1.6582   -3.8541    0.0000 C   0  0  0  0  0  0  0  0  0  0  0  0
   -0.9440   -5.1388    0.0000 O   0  0  0  0  0  0  0  0  0  0  0  0
    0.5172   -0.8168    0.0000 C   0  0  0  0  0  0  0  0  0  0  0  0
    2.0317   -1.2232    0.0000 H   0  0  0  0  0  0  0  0  0  0  0  0
  2  4  1  0  0  0  0
  3  1  1  0  0  0  0
  4  1  1  0  0  0  0
  1  5  1  1  0  0  0
  6 18  1  0  0  0  0
  7  2  1  0  0  0  0
  8  6  1  0  0  0  0
  9  6  2  0  0  0  0
 10  5  1  0  0  0  0
 11  9  1  0  0  0  0
 12  8  1  0  0  0  0
 13 19  1  0  0  0  0
 14  4  1  0  0  0  0
 15 10  1  0  0  0  0
 16  7  1  0  0  0  0
 17 15  1  0  0  0  0
 18 21  1  0  0  0  0
 19 14  1  0  0  0  0
 20  3  2  0  0  0  0
 21 13  1  0  0  0  0
 22 15  1  0  0  0  0
  1 23  1  6  0  0  0
 24 10  2  0  0  0  0
 25 16  2  0  0  0  0
 26 17  2  0  0  0  0
 27 22  2  0  0  0  0
 28 22  1  0  0  0  0
 29  8  1  0  0  0  0
 30 16  1  0  0  0  0
 31 17  1  0  0  0  0
 32 33  1  0  0  0  0
 33 28  2  0  0  0  0
 34 27  1  0  0  0  0
 35 32  1  0  0  0  0
 36 23  1  0  0  0  0
  4 37  1  6  0  0  0
  3  2  1  0  0  0  0
 13  7  2  0  0  0  0
 34 32  2  0  0  0  0
 12 11  2  0  0  0  0
M  END
> <ID>
CHEBI:599928

> <NAME>
moxalactam

> <DEFINITION>
A broad-spectrum oxacephem antibiotic in which the oxazine ring is substituted with a tetrazolylthiomethyl group and the azetidinone ring carries methoxy and 2-carboxy-2-(4-hydroxyphenyl)acetamido substituents.

> <STAR>
3

> <SECONDARY_ID>
CHEBI:44113; CHEBI:7006; CHEBI:214506

> <SYNONYM>
Oxa-cephem; Moxalactam; LMOX; Latamoxef; Lamoxactam; festamoxin

> <IUPAC_NAME>
(6R,7R)-7-{[carboxy(4-hydroxyphenyl)acetyl]amino}-7-methoxy-3-{[(1-methyl-1H-tetrazol-5-yl)sulfanyl]methyl}-8-oxo-5-oxa-1-azabicyclo[4.2.0]oct-2-ene-2-carboxylic acid

> <INN>
latamoxefum; latamoxef

> <FORMULA>
C20H20N6O9S; C20H20N6O9S

> <MASS>
520.47300

> <MONOISOTOPIC_MASS>
520.10125

> <CHARGE>
0

> <SMILES>
CO[C@]1(NC(=O)C(C(O)=O)c2ccc(O)cc2)[C@H]2OCC(CSc3nnnn3C)=C(N2C1=O)C(O)=O

> <INCHI>
InChI=1S/C20H20N6O9S/c1-25-19(22-23-24-25)36-8-10-7-35-18-20(34-2,17(33)26(18)13(10)16(31)32)21-14(28)12(15(29)30)9-3-5-11(27)6-4-9/h3-6,12,18,27H,7-8H2,1-2H3,(H,21,28)(H,29,30)(H,31,32)/t12?,18-,20+/m1/s1

> <INCHIKEY>
JWCSIUVGFCSJCK-CAVRMKNVSA-N

> <BEILSTEIN_REGISTRY_NUMBER>
4222777

> <CAS_REGISTRY_NUMBER>
64952-97-2

> <REAXYS_REGISTRY_NUMBER>
4222777

> <CHEMIDPLUS>
64952-97-2

> <DRUGBANK_ACCESSION>
DB04570

> <HMDB_ACCESSION>
HMDB0015574

> <KEGG_COMPOUND_ACCESSION>
C07231

> <KEGG_DRUG_ACCESSION>
D08109

> <PDBECHEM_ACCESSION>
MXL

> <PUBMED_CITATION>
24956910; 29017833; 3296254; 3477883; 3778044; 6129432; 6217353; 9131470

$$$$

Marvin  09031008552D          

 23 24  0  0  1  0            999 V2000
    9.4708   -8.7371    0.0000 C   0  0  2  0  0  0  0  0  0  0  0  0
    9.4708   -9.5621    0.0000 C   0  0  1  0  0  0  0  0  0  0  0  0
    8.7563   -8.3246    0.0000 O   0  0  0  0  0  0  0  0  0  0  0  0
    8.7563   -9.9746    0.0000 C   0  0  2  0  0  0  0  0  0  0  0  0
    8.0418   -8.7371    0.0000 C   0  0  1  0  0  0  0  0  0  0  0  0
    8.0418   -9.5621    0.0000 C   0  0  2  0  0  0  0  0  0  0  0  0
   10.1853   -8.3246    0.0000 O   0  0  0  0  0  0  0  0  0  0  0  0
   10.1853   -9.9746    0.0000 O   0  0  0  0  0  0  0  0  0  0  0  0
    8.7563  -10.7996    0.0000 O   0  0  0  0  0  0  0  0  0  0  0  0
    7.3274   -9.9746    0.0000 O   0  0  0  0  0  0  0  0  0  0  0  0
    7.3274   -8.3246    0.0000 C   0  0  0  0  0  0  0  0  0  0  0  0
    6.6129   -8.7371    0.0000 O   0  0  0  0  0  0  0  0  0  0  0  0
   10.8998   -6.2621    0.0000 C   0  0  2  0  0  0  0  0  0  0  0  0
   10.8998   -7.0871    0.0000 C   0  0  1  0  0  0  0  0  0  0  0  0
   10.1853   -5.8496    0.0000 O   0  0  0  0  0  0  0  0  0  0  0  0
   10.1853   -7.4996    0.0000 C   0  0  2  0  0  0  0  0  0  0  0  0
    9.4709   -6.2621    0.0000 C   0  0  1  0  0  0  0  0  0  0  0  0
    9.4709   -7.0871    0.0000 C   0  0  2  0  0  0  0  0  0  0  0  0
   11.6143   -5.8496    0.0000 O   0  0  0  0  0  0  0  0  0  0  0  0
   11.6143   -7.4996    0.0000 O   0  0  0  0  0  0  0  0  0  0  0  0
    8.7564   -7.4996    0.0000 O   0  0  0  0  0  0  0  0  0  0  0  0
    8.7564   -5.8496    0.0000 C   0  0  0  0  0  0  0  0  0  0  0  0
    8.0419   -6.2621    0.0000 O   0  0  0  0  0  0  0  0  0  0  0  0
  1  2  1  0  0  0  0
  1  3  1  0  0  0  0
  2  4  1  0  0  0  0
  3  5  1  0  0  0  0
  4  6  1  0  0  0  0
  5  6  1  0  0  0  0
  1  7  1  6  0  0  0
  2  8  1  6  0  0  0
  4  9  1  1  0  0  0
  6 10  1  1  0  0  0
  5 11  1  1  0  0  0
 12 11  1  0  0  0  0
 13 14  1  0  0  0  0
 13 15  1  0  0  0  0
 14 16  1  0  0  0  0
 15 17  1  0  0  0  0
 16 18  1  0  0  0  0
 17 18  1  0  0  0  0
 13 19  1  6  0  0  0
 14 20  1  6  0  0  0
 16  7  1  1  0  0  0
 18 21  1  1  0  0  0
 17 22  1  1  0  0  0
 23 22  1  0  0  0  0
M  END
> <ID>
CHEBI:60180

> <NAME>
alpha-(1->3)-galactobiose

> <DEFINITION>
A glycosylgalactose comprising two α-D-galactose units joined via a (1→3)-linkage.

> <STAR>
3

> <SYNONYM>
alpha-D-Galp-(1->3)-alpha-D-Galp; alpha-D-galactosyl-(1->3)-alpha-D-galactose; 3-O-alpha-D-galactopyranosyl-alpha-D-galactopyranose

> <IUPAC_NAME>
alpha-D-galactopyranosyl-(1->3)-alpha-D-galactopyranose

> <FORMULA>
C12H22O11

> <MASS>
342.29650

> <MONOISOTOPIC_MASS>
342.11621

> <CHARGE>
0

> <SMILES>
OC[C@H]1O[C@H](O[C@@H]2[C@@H](O)[C@@H](O)O[C@H](CO)[C@@H]2O)[C@H](O)[C@@H](O)[C@H]1O

> <INCHI>
InChI=1S/C12H22O11/c13-1-3-5(15)7(17)8(18)12(22-3)23-10-6(16)4(2-14)21-11(20)9(10)19/h3-20H,1-2H2/t3-,4-,5+,6+,7+,8-,9-,10+,11+,12-/m1/s1

> <INCHIKEY>
QIGJYVCQYDKYDW-TXYCDVDISA-N

> <BEILSTEIN_REGISTRY_NUMBER>
1435324

$$$$

Marvin  09091011342D          

 24 25  0  0  0  0            999 V2000
    6.4421  -15.3970    0.0000 C   0  0  0  0  0  0  0  0  0  0  0  0
    6.9270  -16.0644    0.0000 C   0  0  0  0  0  0  0  0  0  0  0  0
    5.6217  -15.4833    0.0000 C   0  0  0  0  0  0  0  0  0  0  0  0
    6.5915  -16.8181    0.0000 C   0  0  0  0  0  0  0  0  0  0  0  0
    5.2861  -16.2370    0.0000 C   0  0  0  0  0  0  0  0  0  0  0  0
    5.7710  -16.9044    0.0000 C   0  0  0  0  0  0  0  0  0  0  0  0
    9.6184  -15.2470    0.0000 C   0  0  0  0  0  0  0  0  0  0  0  0
   11.3492  -14.1200    0.0000 S   0  0  0  0  0  0  0  0  0  0  0  0
   10.3328  -14.8346    0.0000 N   0  0  0  0  0  0  0  0  0  0  0  0
   11.7617  -14.8344    0.0000 C   0  0  0  0  0  0  0  0  0  0  0  0
   11.0474  -15.2470    0.0000 C   0  0  2  0  0  0  0  0  0  0  0  0
   12.1743  -15.5489    0.0000 C   0  0  0  0  0  0  0  0  0  0  0  0
   12.4762  -14.4220    0.0000 C   0  0  0  0  0  0  0  0  0  0  0  0
   11.0474  -16.0720    0.0000 C   0  0  0  0  0  0  0  0  0  0  0  0
   11.7618  -16.4845    0.0000 O   0  0  0  0  0  0  0  0  0  0  0  0
   10.3329  -16.4845    0.0000 O   0  0  0  0  0  0  0  0  0  0  0  0
    7.5982  -14.5570    0.0000 C   0  0  0  0  0  0  0  0  0  0  0  0
    8.0107  -13.8426    0.0000 O   0  0  0  0  0  0  0  0  0  0  0  0
    8.1502  -15.1701    0.0000 N   0  0  0  0  0  0  0  0  0  0  0  0
    8.8176  -14.0140    0.0000 C   0  0  0  0  0  0  0  0  0  0  0  0
    8.9038  -14.8345    0.0000 C   0  0  0  0  0  0  0  0  0  0  0  0
    9.4307  -13.4620    0.0000 O   0  0  0  0  0  0  0  0  0  0  0  0
    6.7776  -14.6432    0.0000 C   0  0  0  0  0  0  0  0  0  0  0  0
    9.6184  -16.0720    0.0000 H   0  0  0  0  0  0  0  0  0  0  0  0
  2  1  1  0  0  0  0
  3  1  2  0  0  0  0
  4  2  2  0  0  0  0
  5  3  1  0  0  0  0
  6  4  1  0  0  0  0
  6  5  2  0  0  0  0
  9  7  1  0  0  0  0
 10  8  1  0  0  0  0
 11  9  1  0  0  0  0
 11 10  1  0  0  0  0
 10 12  1  0  0  0  0
 10 13  1  0  0  0  0
 15 14  2  0  0  0  0
 16 14  1  0  0  0  0
 11 14  1  6  0  0  0
 18 17  1  0  0  0  0
 19 17  2  0  0  0  0
 20 18  1  0  0  0  0
 21 19  1  0  0  0  0
 21 20  1  0  0  0  0
 20 22  2  0  0  0  0
 17 23  1  0  0  0  0
  7 21  2  0  0  0  0
  1 23  1  0  0  0  0
  7 24  1  4  0  0  0
M  END
> <ID>
CHEBI:60209

> <NAME>
benzylpenicillenic acid

> <DEFINITION>
A penicillenic acid having a benzyl substituent at the 2-position on the oxazolone ring.

> <STAR>
3

> <IUPAC_NAME>
N-[(2-benzyl-5-oxo-1,3-oxazol-4(5H)-ylidene)methyl]-3-sulfanyl-D-valine

> <FORMULA>
C16H18N2O4S

> <MASS>
334.39000

> <MONOISOTOPIC_MASS>
334.09873

> <CHARGE>
0

> <SMILES>
[H]C(N[C@@H](C(O)=O)C(C)(C)S)=C1N=C(Cc2ccccc2)OC1=O

> <INCHI>
InChI=1S/C16H18N2O4S/c1-16(2,23)13(14(19)20)17-9-11-15(21)22-12(18-11)8-10-6-4-3-5-7-10/h3-7,9,13,17,23H,8H2,1-2H3,(H,19,20)/t13-/m0/s1

> <INCHIKEY>
WGIWOHWWPXKJMS-ZDUSSCGKSA-N

> <BEILSTEIN_REGISTRY_NUMBER>
42406

> <CAS_REGISTRY_NUMBER>
3264-88-8

> <REAXYS_REGISTRY_NUMBER>
42406

> <CHEMIDPLUS>
3264-88-8

> <PUBMED_CITATION>
13720937; 13761468; 13963026; 18889944; 21680886; 25322; 4332748; 4339405; 5030667; 5797836

$$$$

Mrv0541 02131411012D          

 10 10  0  0  0  0            999 V2000
    7.1002   -2.3313    0.0000 C   0  0  0  0  0  0  0  0  0  0  0  0
    7.8147   -1.0938    0.0000 C   0  0  0  0  0  0  0  0  0  0  0  0
    7.1002   -0.6813    0.0000 C   0  0  0  0  0  0  0  0  0  0  0  0
    6.3857   -1.9188    0.0000 C   0  0  0  0  0  0  0  0  0  0  0  0
    7.8147   -1.9188    0.0000 N   0  0  0  0  0  0  0  0  0  0  0  0
    6.3857   -1.0938    0.0000 C   0  0  0  0  0  0  0  0  0  0  0  0
    5.6713    0.1437    0.0000 O   0  0  0  0  0  0  0  0  0  0  0  0
    5.6713   -0.6813    0.0000 C   0  0  0  0  0  0  0  0  0  0  0  0
    4.9568   -1.0938    0.0000 N   0  0  0  0  0  0  0  0  0  0  0  0
    4.2424   -0.6813    0.0000 N   0  0  0  0  0  0  0  0  0  0  0  0
  1  5  1  0  0  0  0
  1  4  2  0  0  0  0
  5  2  2  0  0  0  0
  2  3  1  0  0  0  0
  3  6  2  0  0  0  0
  6  4  1  0  0  0  0
  6  8  1  0  0  0  0
  8  7  2  0  0  0  0
  8  9  1  0  0  0  0
  9 10  1  0  0  0  0
M  END
> <ID>
CHEBI:6030

> <NAME>
isoniazide

> <DEFINITION>
A carbohydrazide obtained by formal condensation between pyridine-4-carboxylic acid and hydrazine.

> <STAR>
3

> <SYNONYM>
pyridine-4-carboxylic acid hydrazide; Isonicotinsaeurehydrazid; isonicotinoylhydrazide; isonicotinohydrazide; isonicotinic hydrazide; isonicotinic acid hydrazide; Isoniazid; isoniazid; 4-pyridinecarbohydrazide

> <IUPAC_NAME>
pyridine-4-carbohydrazide

> <FORMULA>
C6H7N3O

> <MASS>
137.13930

> <MONOISOTOPIC_MASS>
137.05891

> <CHARGE>
0

> <SMILES>
NNC(=O)c1ccncc1

> <INCHI>
InChI=1S/C6H7N3O/c7-9-6(10)5-1-3-8-4-2-5/h1-4H,7H2,(H,9,10)

> <INCHIKEY>
QRXWMOHMRWLFEY-UHFFFAOYSA-N

> <BEILSTEIN_REGISTRY_NUMBER>
119374

> <CAS_REGISTRY_NUMBER>
54-85-3

> <GMELIN_REGISTRY_NUMBER>
82804

> <REAXYS_REGISTRY_NUMBER>
119374

> <CHEMIDPLUS>
54-85-3

> <DRUGBANK_ACCESSION>
DB00951

> <KEGG_COMPOUND_ACCESSION>
C07054

> <KEGG_DRUG_ACCESSION>
D00346

> <LINCS_ACCESSION>
LSM-6682

> <METACYC_ACCESSION>
ISONIAZIDE

> <NIST_CHEMISTRY_WEBBOOK>
54-85-3

> <WIKIPEDIA_ACCESSION>
Isoniazid

> <PUBMED_CITATION>
15013786; 18220565; 19183459; 445303

$$$$

Marvin  11041013182D          

 24 25  0  0  0  0            999 V2000
    6.4421  -15.3970    0.0000 C   0  0  0  0  0  0  0  0  0  0  0  0
    6.9270  -16.0644    0.0000 C   0  0  0  0  0  0  0  0  0  0  0  0
    5.6217  -15.4833    0.0000 C   0  0  0  0  0  0  0  0  0  0  0  0
    6.5915  -16.8181    0.0000 C   0  0  0  0  0  0  0  0  0  0  0  0
    5.2861  -16.2370    0.0000 C   0  0  0  0  0  0  0  0  0  0  0  0
    5.7710  -16.9044    0.0000 C   0  0  0  0  0  0  0  0  0  0  0  0
    9.6184  -15.2470    0.0000 C   0  0  0  0  0  0  0  0  0  0  0  0
   11.3492  -14.1200    0.0000 S   0  0  0  0  0  0  0  0  0  0  0  0
   10.3328  -14.8346    0.0000 N   0  0  0  0  0  0  0  0  0  0  0  0
   11.7617  -14.8344    0.0000 C   0  0  0  0  0  0  0  0  0  0  0  0
   11.0474  -15.2470    0.0000 C   0  0  2  0  0  0  0  0  0  0  0  0
   12.1743  -15.5489    0.0000 C   0  0  0  0  0  0  0  0  0  0  0  0
   12.4762  -14.4220    0.0000 C   0  0  0  0  0  0  0  0  0  0  0  0
   11.0474  -16.0720    0.0000 C   0  0  0  0  0  0  0  0  0  0  0  0
   11.7618  -16.4845    0.0000 O   0  0  0  0  0  0  0  0  0  0  0  0
   10.3329  -16.4845    0.0000 O   0  5  0  0  0  0  0  0  0  0  0  0
    7.5982  -14.5570    0.0000 C   0  0  0  0  0  0  0  0  0  0  0  0
    8.0107  -13.8426    0.0000 O   0  0  0  0  0  0  0  0  0  0  0  0
    8.1502  -15.1701    0.0000 N   0  0  0  0  0  0  0  0  0  0  0  0
    8.8176  -14.0140    0.0000 C   0  0  0  0  0  0  0  0  0  0  0  0
    8.9038  -14.8345    0.0000 C   0  0  0  0  0  0  0  0  0  0  0  0
    9.4307  -13.4620    0.0000 O   0  0  0  0  0  0  0  0  0  0  0  0
    6.7776  -14.6432    0.0000 C   0  0  0  0  0  0  0  0  0  0  0  0
    9.6184  -16.0720    0.0000 H   0  0  0  0  0  0  0  0  0  0  0  0
  2  1  1  0  0  0  0
  3  1  2  0  0  0  0
  4  2  2  0  0  0  0
  5  3  1  0  0  0  0
  6  4  1  0  0  0  0
  6  5  2  0  0  0  0
  9  7  1  0  0  0  0
 10  8  1  0  0  0  0
 11  9  1  0  0  0  0
 11 10  1  0  0  0  0
 10 12  1  0  0  0  0
 10 13  1  0  0  0  0
 15 14  2  0  0  0  0
 16 14  1  0  0  0  0
 11 14  1  6  0  0  0
 18 17  1  0  0  0  0
 19 17  2  0  0  0  0
 20 18  1  0  0  0  0
 21 19  1  0  0  0  0
 21 20  1  0  0  0  0
 20 22  2  0  0  0  0
 17 23  1  0  0  0  0
  7 21  2  0  0  0  0
  1 23  1  0  0  0  0
  7 24  1  4  0  0  0
M  CHG  1  16  -1
M  END
> <ID>
CHEBI:60541

> <NAME>
benzylpenicillenate

> <DEFINITION>
The conjugate base of benzylpenicillenic acid.

> <STAR>
3

> <SYNONYM>
penicillenate; N-[(2-benzyl-5-oxo-1,3-oxazol-4(5H)-ylidene)methyl]-3-sulfanyl-D-valine anion; benzylpenicillenic acid anion; (2S)-2-{[(2-benzyl-5-oxo-1,3-oxazol-4(5H)-ylidene)methyl]amino}-3-methyl-3-sulfanylbutanoate

> <IUPAC_NAME>
N-[(2-benzyl-5-oxo-1,3-oxazol-4(5H)-ylidene)methyl]-3-sulfanyl-D-valinate

> <FORMULA>
C16H17N2O4S

> <MASS>
333.38200

> <MONOISOTOPIC_MASS>
333.09145

> <CHARGE>
-1

> <SMILES>
[H]C(N[C@@H](C([O-])=O)C(C)(C)S)=C1N=C(Cc2ccccc2)OC1=O

> <INCHI>
InChI=1S/C16H18N2O4S/c1-16(2,23)13(14(19)20)17-9-11-15(21)22-12(18-11)8-10-6-4-3-5-7-10/h3-7,9,13,17,23H,8H2,1-2H3,(H,19,20)/p-1/t13-/m0/s1

> <INCHIKEY>
WGIWOHWWPXKJMS-ZDUSSCGKSA-M

> <PUBMED_CITATION>
14483916

$$$$

Marvin  11051009412D          

 14 14  0  0  1  0            999 V2000
   12.7723   -9.8237    0.0000 C   0  0  0  0  0  0  0  0  0  0  0  0
   12.0577   -9.4112    0.0000 N   0  0  0  0  0  0  0  0  0  0  0  0
   11.3431   -9.8237    0.0000 C   0  0  0  0  0  0  0  0  0  0  0  0
   11.3431  -10.6487    0.0000 O   0  0  0  0  0  0  0  0  0  0  0  0
   10.6288   -9.4112    0.0000 C   0  0  0  0  0  0  0  0  0  0  0  0
    9.1998   -9.4112    0.0000 C   0  0  0  0  0  0  0  0  0  0  0  0
    8.4851   -9.8237    0.0000 C   0  0  0  0  0  0  0  0  0  0  0  0
    8.4851  -10.6487    0.0000 C   0  0  0  0  0  0  0  0  0  0  0  0
    9.1998  -11.0612    0.0000 C   0  0  0  0  0  0  0  0  0  0  0  0
    9.9142  -10.6487    0.0000 C   0  0  0  0  0  0  0  0  0  0  0  0
    9.9142   -9.8237    0.0000 C   0  0  0  0  0  0  0  0  0  0  0  0
   12.7723  -10.6487    0.0000 C   0  0  0  0  0  0  0  0  0  0  0  0
   13.4868  -11.0612    0.0000 H   0  0  0  0  0  0  0  0  0  0  0  0
   12.0578  -11.0612    0.0000 O   0  0  0  0  0  0  0  0  0  0  0  0
  1 12  1  0  0  0  0
  1  2  1  0  0  0  0
  2  3  1  0  0  0  0
  3  5  1  0  0  0  0
  3  4  2  0  0  0  0
  5 11  1  0  0  0  0
  6  7  1  0  0  0  0
  6 11  2  0  0  0  0
  7  8  2  0  0  0  0
  8  9  1  0  0  0  0
  9 10  2  0  0  0  0
 10 11  1  0  0  0  0
 12 13  1  0  0  0  0
 12 14  2  0  0  0  0
M  END
> <ID>
CHEBI:60542

> <NAME>
benzylpenilloaldehyde

> <DEFINITION>
Degradation product of benzylpenicillin in which the thiolamino acid penicillamine and carbon dioxide from the labile carboxyl group have been lost, leaving a phenylacetylamino-acetaldehyde.

> <STAR>
3

> <SYNONYM>
phenylacetylaminoacetaldehyde; Phenyl-essigsaeure-(2-oxo-aethylamid); phenyl-acetic acid-(2-oxo-ethylamide); penilloaldehyde; penicilloaldehyde; G-penilloaldehyde; G-penicilloaldehyde; benzylpenicilloaldehyde

> <IUPAC_NAME>
N-(2-oxoethyl)-2-phenylacetamide

> <FORMULA>
C10H11NO2

> <MASS>
177.19980

> <MONOISOTOPIC_MASS>
177.07898

> <CHARGE>
0

> <SMILES>
[H]C(=O)CNC(=O)Cc1ccccc1

> <INCHI>
InChI=1S/C10H11NO2/c12-7-6-11-10(13)8-9-4-2-1-3-5-9/h1-5,7H,6,8H2,(H,11,13)

> <INCHIKEY>
ZBDOVHVJWVWSPQ-UHFFFAOYSA-N

> <PUBMED_CITATION>
14483916

$$$$

Marvin  01071109432D          

 26 28  0  0  1  0            999 V2000
   10.4938   -7.4273    0.0000 N   0  0  0  0  0  0  0  0  0  0  0  0
   11.2783   -6.3474    0.0000 S   0  0  0  0  0  0  0  0  0  0  0  0
   12.4777   -7.4273    0.0000 C   0  0  0  0  0  0  0  0  0  0  0  0
   11.7632   -7.0148    0.0000 C   0  0  0  0  0  0  0  0  0  0  0  0
   12.4777   -6.6024    0.0000 C   0  0  0  0  0  0  0  0  0  0  0  0
   11.2783   -7.6823    0.0000 C   0  0  2  0  0  0  0  0  0  0  0  0
   12.3402   -8.6384    0.0000 O   0  0  0  0  0  0  0  0  0  0  0  0
   11.5332   -8.4669    0.0000 C   0  0  0  0  0  0  0  0  0  0  0  0
   10.9813   -9.0800    0.0000 O   0  0  0  0  0  0  0  0  0  0  0  0
    9.7794   -5.3648    0.0000 N   0  0  0  0  0  0  0  0  0  0  0  0
    9.0649   -4.9523    0.0000 C   0  0  0  0  0  0  0  0  0  0  0  0
    9.0649   -4.1273    0.0000 O   0  0  0  0  0  0  0  0  0  0  0  0
    8.3505   -5.3647    0.0000 C   0  0  0  0  0  0  0  0  0  0  0  0
    6.9216   -5.3648    0.0000 C   0  0  0  0  0  0  0  0  0  0  0  0
    6.2071   -4.9523    0.0000 C   0  0  0  0  0  0  0  0  0  0  0  0
    6.2070   -4.1273    0.0000 C   0  0  0  0  0  0  0  0  0  0  0  0
    6.9215   -3.7148    0.0000 C   0  0  0  0  0  0  0  0  0  0  0  0
    7.6360   -4.1273    0.0000 C   0  0  0  0  0  0  0  0  0  0  0  0
    7.6360   -4.9523    0.0000 C   0  0  0  0  0  0  0  0  0  0  0  0
   10.4938   -6.6024    0.0000 C   0  0  2  0  0  0  0  0  0  0  0  0
   10.4938   -5.7773    0.0000 H   0  0  0  0  0  0  0  0  0  0  0  0
    9.7794   -6.1899    0.0000 C   0  0  0  0  0  0  0  0  0  0  0  0
    9.0649   -6.6024    0.0000 C   0  0  0  0  0  0  0  0  0  0  0  0
    8.3506   -6.1896    0.0000 N   0  0  0  0  0  0  0  0  0  0  0  0
    5.4926   -3.7149    0.0000 O   0  0  0  0  0  0  0  0  0  0  0  0
    9.0648   -7.4274    0.0000 O   0  0  0  0  0  0  0  0  0  0  0  0
  1  6  1  0  0  0  0
 20  1  1  0  0  0  0
  2 20  1  0  0  0  0
  2  4  1  0  0  0  0
  6  4  1  0  0  0  0
  4  3  1  0  0  0  0
  4  5  1  0  0  0  0
  6  8  1  6  0  0  0
  8  7  1  0  0  0  0
  8  9  2  0  0  0  0
 22 10  1  0  0  0  0
 10 11  1  0  0  0  0
 11 13  1  0  0  0  0
 11 12  2  0  0  0  0
 13 19  1  0  0  0  0
 14 15  1  0  0  0  0
 14 19  2  0  0  0  0
 15 16  2  0  0  0  0
 16 17  1  0  0  0  0
 17 18  2  0  0  0  0
 18 19  1  0  0  0  0
 20 21  1  6  0  0  0
 20 22  1  0  0  0  0
 22 23  1  0  0  0  0
 13 24  1  0  0  0  0
 16 25  1  0  0  0  0
 23 24  1  0  0  0  0
 23 26  2  0  0  0  0
M  END
> <ID>
CHEBI:60639

> <NAME>
amoxicillin diketopiperazine

> <DEFINITION>
A member of the class of 2,5-diketopiperazines obtained via autoaminolysis of amoxicillin.

> <STAR>
3

> <SYNONYM>
amoxicillin 2,5-diketopiperazine

> <IUPAC_NAME>
(2R,4S)-2-[5-(4-hydroxyphenyl)-3,6-dioxopiperazin-2-yl]-5,5-dimethyl-1,3-thiazolidine-4-carboxylic acid

> <FORMULA>
C16H19N3O5S

> <MASS>
365.40400

> <MONOISOTOPIC_MASS>
365.10454

> <CHARGE>
0

> <SMILES>
[H][C@]1(N[C@@H](C(O)=O)C(C)(C)S1)C1NC(=O)C(NC1=O)c1ccc(O)cc1

> <INCHI>
InChI=1S/C16H19N3O5S/c1-16(2)11(15(23)24)19-14(25-16)10-13(22)17-9(12(21)18-10)7-3-5-8(20)6-4-7/h3-6,9-11,14,19-20H,1-2H3,(H,17,22)(H,18,21)(H,23,24)/t9?,10?,11-,14+/m0/s1

> <INCHIKEY>
IIZCCQJEPBWGJU-YXLKDIQASA-N

> <PUBMED_CITATION>
19968633

$$$$

Marvin  05161112432D          

 34 36  0  0  1  0            999 V2000
   14.4773   -1.2474    0.0000 C   0  0  0  0  0  0  0  0  0  0  0  0
   14.4773   -2.0724    0.0000 C   0  0  1  0  0  0  0  0  0  0  0  0
   13.7628   -0.8349    0.0000 O   0  0  0  0  0  0  0  0  0  0  0  0
   13.7628   -2.4849    0.0000 C   0  0  2  0  0  0  0  0  0  0  0  0
   13.0483   -1.2474    0.0000 C   0  0  1  0  0  0  0  0  0  0  0  0
   13.0483   -2.0724    0.0000 C   0  0  1  0  0  0  0  0  0  0  0  0
   15.1918   -0.8349    0.0000 O   0  0  0  0  0  0  0  0  0  0  0  0
   15.1918   -2.4849    0.0000 O   0  0  0  0  0  0  0  0  0  0  0  0
   13.7628   -3.3099    0.0000 O   0  0  0  0  0  0  0  0  0  0  0  0
   12.3339   -2.4849    0.0000 O   0  0  0  0  0  0  0  0  0  0  0  0
   12.3339   -0.8349    0.0000 C   0  0  0  0  0  0  0  0  0  0  0  0
   11.6194   -1.2474    0.0000 O   0  0  0  0  0  0  0  0  0  0  0  0
   11.6194   -2.8974    0.0000 C   0  0  1  0  0  0  0  0  0  0  0  0
   11.6194   -3.7224    0.0000 C   0  0  1  0  0  0  0  0  0  0  0  0
   10.9049   -2.4849    0.0000 O   0  0  0  0  0  0  0  0  0  0  0  0
   10.9049   -4.1349    0.0000 C   0  0  2  0  0  0  0  0  0  0  0  0
   10.1904   -2.8974    0.0000 C   0  0  1  0  0  0  0  0  0  0  0  0
   10.1904   -3.7224    0.0000 C   0  0  2  0  0  0  0  0  0  0  0  0
   12.3339   -4.1349    0.0000 O   0  0  0  0  0  0  0  0  0  0  0  0
   10.9049   -4.9599    0.0000 O   0  0  0  0  0  0  0  0  0  0  0  0
    9.4760   -4.1349    0.0000 O   0  0  0  0  0  0  0  0  0  0  0  0
    9.4760   -2.4849    0.0000 C   0  0  0  0  0  0  0  0  0  0  0  0
    8.7615   -2.8974    0.0000 O   0  0  0  0  0  0  0  0  0  0  0  0
   10.1904   -5.3724    0.0000 C   0  0  2  0  0  0  0  0  0  0  0  0
   10.1904   -6.1974    0.0000 C   0  0  1  0  0  0  0  0  0  0  0  0
    9.4759   -4.9599    0.0000 O   0  0  0  0  0  0  0  0  0  0  0  0
    9.4759   -6.6099    0.0000 C   0  0  2  0  0  0  0  0  0  0  0  0
    8.7614   -5.3724    0.0000 C   0  0  1  0  0  0  0  0  0  0  0  0
    8.7614   -6.1974    0.0000 C   0  0  2  0  0  0  0  0  0  0  0  0
   10.9049   -6.6100    0.0000 O   0  0  0  0  0  0  0  0  0  0  0  0
    9.4759   -7.4349    0.0000 O   0  0  0  0  0  0  0  0  0  0  0  0
    8.0470   -6.6099    0.0000 O   0  0  0  0  0  0  0  0  0  0  0  0
    8.0470   -4.9600    0.0000 C   0  0  0  0  0  0  0  0  0  0  0  0
    7.3325   -5.3725    0.0000 O   0  0  0  0  0  0  0  0  0  0  0  0
  1  2  1  0  0  0  0
  1  3  1  0  0  0  0
  2  4  1  0  0  0  0
  3  5  1  0  0  0  0
  4  6  1  0  0  0  0
  5  6  1  0  0  0  0
  1  7  1  0  0  0  0
  2  8  1  6  0  0  0
  4  9  1  1  0  0  0
  6 10  1  6  0  0  0
  5 11  1  1  0  0  0
 12 11  1  0  0  0  0
 13 14  1  0  0  0  0
 13 15  1  0  0  0  0
 14 16  1  0  0  0  0
 15 17  1  0  0  0  0
 16 18  1  0  0  0  0
 17 18  1  0  0  0  0
 13 10  1  1  0  0  0
 14 19  1  6  0  0  0
 16 20  1  1  0  0  0
 18 21  1  1  0  0  0
 17 22  1  1  0  0  0
 23 22  1  0  0  0  0
 24 25  1  0  0  0  0
 24 26  1  0  0  0  0
 25 27  1  0  0  0  0
 26 28  1  0  0  0  0
 27 29  1  0  0  0  0
 28 29  1  0  0  0  0
 24 20  1  6  0  0  0
 25 30  1  6  0  0  0
 27 31  1  1  0  0  0
 29 32  1  1  0  0  0
 28 33  1  1  0  0  0
 34 33  1  0  0  0  0
M  END
> <ID>
CHEBI:60946

> <NAME>
alpha-D-Gal-(1->3)-beta-D-Gal-(1->4)-D-Glc

> <DEFINITION>
A linear trisaccharide comprising D-glucose (at the reducing end) having an α-D-galactosyl-(1→3)-β-D-galactosyl moiety at the 4-position.

> <STAR>
3

> <SECONDARY_ID>
CHEBI:85026

> <SYNONYM>
isoglobotriose; Gala1-3Galb1-4Glc; Gal-alpha1,3Gal-beta1,4Glc; Gal-alpha(1,3)Gal-beta(1,4)Glc; alphaGal1-3betaGal1-4Glc; alpha-Gal trisaccharide; alpha-D-Galp-(1->3)-beta-D-Galp-(1->4)-D-Glcp; alpha-D-galactosyl-(1->3)-beta-D-galactosyl-(1->4)-D-glucose; 3'-galactosyllactose; (Gal)2 (Glc)1

> <IUPAC_NAME>
alpha-D-galactopyranosyl-(1->3)-beta-D-galactopyranosyl-(1->4)-D-glucopyranose

> <FORMULA>
C18H32O16

> <MASS>
504.43710

> <MONOISOTOPIC_MASS>
504.16903

> <CHARGE>
0

> <SMILES>
OC[C@H]1O[C@H](O[C@H]2[C@@H](O)[C@@H](CO)O[C@@H](O[C@@H]3[C@@H](CO)OC(O)[C@H](O)[C@H]3O)[C@@H]2O)[C@H](O)[C@@H](O)[C@H]1O

> <INCHI>
InChI=1S/C18H32O16/c19-1-4-7(22)9(24)12(27)17(31-4)34-15-8(23)5(2-20)32-18(13(15)28)33-14-6(3-21)30-16(29)11(26)10(14)25/h4-29H,1-3H2/t4-,5-,6-,7+,8+,9+,10-,11-,12-,13-,14-,15+,16?,17-,18+/m1/s1

> <INCHIKEY>
ODDPRQJTYDIWJU-HLICEBNFSA-N

> <REAXYS_REGISTRY_NUMBER>
5780437

> <KEGG_GLYCAN_ACCESSION>
G00419

> <PUBMED_CITATION>
10096519; 10482447; 11125830; 11844492; 12868864; 16494472; 17724458; 17991151; 25568069; 29319188; 31537530; 7982214; 8154046; 9101720

$$$$

Marvin  01171116492D          

 18 19  0  0  0  0            999 V2000
   12.3436   -7.0052    0.0000 N   0  0  0  0  0  0  0  0  0  0  0  0
   12.3436   -6.1802    0.0000 C   0  0  0  0  0  0  0  0  0  0  0  0
   13.0580   -5.7677    0.0000 C   0  0  0  0  0  0  0  0  0  0  0  0
   13.0580   -4.9427    0.0000 C   0  0  0  0  0  0  0  0  0  0  0  0
   12.3436   -4.5302    0.0000 C   0  0  0  0  0  0  0  0  0  0  0  0
   11.6290   -4.9427    0.0000 C   0  0  0  0  0  0  0  0  0  0  0  0
   11.6290   -5.7677    0.0000 C   0  0  0  0  0  0  0  0  0  0  0  0
   12.3436   -3.7052    0.0000 S   0  0  0  0  0  0  0  0  0  0  0  0
   11.5186   -3.7052    0.0000 O   0  0  0  0  0  0  0  0  0  0  0  0
   13.1686   -3.7052    0.0000 O   0  0  0  0  0  0  0  0  0  0  0  0
   12.3436   -2.8802    0.0000 N   0  0  0  0  0  0  0  0  0  0  0  0
   13.0580   -2.4677    0.0000 C   0  0  0  0  0  0  0  0  0  0  0  0
   13.7724   -2.8802    0.0000 N   0  0  0  0  0  0  0  0  0  0  0  0
   14.4869   -2.4677    0.0000 C   0  0  0  0  0  0  0  0  0  0  0  0
   14.4869   -1.6427    0.0000 C   0  0  0  0  0  0  0  0  0  0  0  0
   13.7724   -1.2302    0.0000 C   0  0  0  0  0  0  0  0  0  0  0  0
   13.0580   -1.6427    0.0000 N   0  0  0  0  0  0  0  0  0  0  0  0
   11.6291   -7.4177    0.0000 O   0  0  0  0  0  0  0  0  0  0  0  0
  1  2  1  0  0  0  0
  2  3  2  0  0  0  0
  2  7  1  0  0  0  0
  3  4  1  0  0  0  0
  4  5  2  0  0  0  0
  5  6  1  0  0  0  0
  5  8  1  0  0  0  0
  6  7  2  0  0  0  0
  8  9  2  0  0  0  0
  8 10  2  0  0  0  0
  8 11  1  0  0  0  0
 11 12  1  0  0  0  0
 12 13  2  0  0  0  0
 12 17  1  0  0  0  0
 13 14  1  0  0  0  0
 14 15  2  0  0  0  0
 15 16  1  0  0  0  0
 16 17  2  0  0  0  0
  1 18  2  0  0  0  0
M  END
> <ID>
CHEBI:61018

> <NAME>
nitrososulfadiazine

> <DEFINITION>
A pyrimidine having a 4-nitrosobenzenesulfonamido group at the 2-position.

> <STAR>
3

> <SYNONYM>
nitroso sulfadiazine

> <IUPAC_NAME>
4-nitroso-N-(pyrimidin-2-yl)benzenesulfonamide

> <FORMULA>
C10H8N4O3S

> <MASS>
264.26100

> <MONOISOTOPIC_MASS>
264.03171

> <CHARGE>
0

> <SMILES>
O=Nc1ccc(cc1)S(=O)(=O)Nc1ncccn1

> <INCHI>
InChI=1S/C10H8N4O3S/c15-13-8-2-4-9(5-3-8)18(16,17)14-10-11-6-1-7-12-10/h1-7H,(H,11,12,14)

> <INCHIKEY>
LTWHJLLRQPFWSF-UHFFFAOYSA-N

> <REAXYS_REGISTRY_NUMBER>
5960714

> <PUBMED_CITATION>
20159253

$$$$

Marvin  01171117022D          

 18 19  0  0  0  0            999 V2000
   12.9408   -5.7210    0.0000 C   0  0  0  0  0  0  0  0  0  0  0  0
   12.9408   -6.5460    0.0000 C   0  0  0  0  0  0  0  0  0  0  0  0
   12.2248   -6.9585    0.0000 C   0  0  0  0  0  0  0  0  0  0  0  0
   11.5128   -6.5460    0.0000 C   0  0  0  0  0  0  0  0  0  0  0  0
   11.5128   -5.7210    0.0000 C   0  0  0  0  0  0  0  0  0  0  0  0
   12.2248   -5.3085    0.0000 C   0  0  0  0  0  0  0  0  0  0  0  0
   10.7980   -5.3092    0.0000 S   0  0  0  0  0  0  0  0  0  0  0  0
   10.0839   -5.7221    0.0000 N   0  0  0  0  0  0  0  0  0  0  0  0
    9.3690   -5.3102    0.0000 C   0  0  0  0  0  0  0  0  0  0  0  0
    8.6570   -5.7234    0.0000 N   0  0  0  0  0  0  0  0  0  0  0  0
    7.9424   -5.3115    0.0000 C   0  0  0  0  0  0  0  0  0  0  0  0
    7.9417   -4.4864    0.0000 C   0  0  0  0  0  0  0  0  0  0  0  0
    8.6559   -4.0733    0.0000 C   0  0  0  0  0  0  0  0  0  0  0  0
    9.3706   -4.4853    0.0000 C   0  0  0  0  0  0  0  0  0  0  0  0
   13.6552   -6.9590    0.0000 N   0  0  0  0  0  0  0  0  0  0  0  0
   11.2105   -4.5948    0.0000 O   0  0  0  0  0  0  0  0  0  0  0  0
   10.3855   -4.5948    0.0000 O   0  0  0  0  0  0  0  0  0  0  0  0
   13.6547   -7.7840    0.0000 O   0  0  0  0  0  0  0  0  0  0  0  0
  3  4  1  0  0  0  0
  4  5  2  0  0  0  0
  8  9  1  0  0  0  0
  5  6  1  0  0  0  0
  6  1  2  0  0  0  0
  5  7  1  0  0  0  0
  1  2  1  0  0  0  0
  9 10  2  0  0  0  0
 10 11  1  0  0  0  0
 11 12  2  0  0  0  0
 12 13  1  0  0  0  0
 13 14  2  0  0  0  0
 14  9  1  0  0  0  0
  7  8  1  0  0  0  0
  2  3  2  0  0  0  0
  2 15  1  0  0  0  0
 17  7  2  0  0  0  0
  7 16  2  0  0  0  0
 15 18  1  0  0  0  0
M  END
> <ID>
CHEBI:61021

> <NAME>
sulfapyridine hydroxylamine

> <DEFINITION>
A pyridine having a 4-hydroxyaminobenzenesulfonamido group at the 2-position.

> <STAR>
3

> <IUPAC_NAME>
4-(hydroxyamino)-N-(pyridin-2-yl)benzenesulfonamide

> <FORMULA>
C11H11N3O3S

> <MASS>
265.28800

> <MONOISOTOPIC_MASS>
265.05211

> <CHARGE>
0

> <SMILES>
ONc1ccc(cc1)S(=O)(=O)Nc1ccccn1

> <INCHI>
InChI=1S/C11H11N3O3S/c15-13-9-4-6-10(7-5-9)18(16,17)14-11-3-1-2-8-12-11/h1-8,13,15H,(H,12,14)

> <INCHIKEY>
AOXBYIPVNKSIPQ-UHFFFAOYSA-N

> <PUBMED_CITATION>
20159253

$$$$

Marvin  05240612342D          

 19 20  0  0  0  0            999 V2000
   -3.4375    0.4813    0.0000 C   0  0  0  0  0  0  0  0  0  0  0  0
   -4.1520    0.0688    0.0000 C   0  0  0  0  0  0  0  0  0  0  0  0
   -4.1520   -0.7563    0.0000 C   0  0  0  0  0  0  0  0  0  0  0  0
   -3.4375   -1.1688    0.0000 C   0  0  0  0  0  0  0  0  0  0  0  0
   -2.7230   -0.7563    0.0000 C   0  0  0  0  0  0  0  0  0  0  0  0
   -2.7230    0.0688    0.0000 C   0  0  0  0  0  0  0  0  0  0  0  0
   -1.2941    0.0688    0.0000 C   0  0  0  0  0  0  0  0  0  0  0  0
   -0.5796    0.4813    0.0000 C   0  0  0  0  0  0  0  0  0  0  0  0
   -1.2941   -0.7563    0.0000 C   0  0  0  0  0  0  0  0  0  0  0  0
   -0.5796   -1.1688    0.0000 C   0  0  0  0  0  0  0  0  0  0  0  0
    0.1348   -0.7563    0.0000 C   0  0  0  0  0  0  0  0  0  0  0  0
   -2.0086    0.4813    0.0000 C   0  0  0  0  0  0  0  0  0  0  0  0
   -2.0086    1.3063    0.0000 O   0  0  0  0  0  0  0  0  0  0  0  0
    0.1348    0.0688    0.0000 C   0  0  0  0  0  0  0  0  0  0  0  0
    0.8493    0.4813    0.0000 C   0  0  3  0  0  0  0  0  0  0  0  0
    0.8493    1.3063    0.0000 C   0  0  0  0  0  0  0  0  0  0  0  0
    1.5638   -0.7562    0.0000 O   0  0  0  0  0  0  0  0  0  0  0  0
    1.5638    0.0688    0.0000 C   0  0  0  0  0  0  0  0  0  0  0  0
    2.2783    0.4813    0.0000 O   0  0  0  0  0  0  0  0  0  0  0  0
  1  2  2  0  0  0  0
  1  6  1  0  0  0  0
  2  3  1  0  0  0  0
  3  4  2  0  0  0  0
  4  5  1  0  0  0  0
  5  6  2  0  0  0  0
  6 12  1  0  0  0  0
 12  7  1  0  0  0  0
  8  7  2  0  0  0  0
  7  9  1  0  0  0  0
  8 14  1  0  0  0  0
  9 10  2  0  0  0  0
 10 11  1  0  0  0  0
 11 14  2  0  0  0  0
 12 13  2  0  0  0  0
 14 15  1  0  0  0  0
 15 18  1  0  0  0  0
 15 16  1  0  0  0  0
 18 17  1  0  0  0  0
 18 19  2  0  0  0  0
M  END
> <ID>
CHEBI:6128

> <NAME>
ketoprofen

> <DEFINITION>
An oxo monocarboxylic acid that consists of propionic acid substituted by a 3-benzoylphenyl group at position 2.

> <STAR>
3

> <SYNONYM>
Orudis (TN); m-Benzoylhydratropic acid; L'Acide (benzoyl-3-phenyl)-2-propionique; Ketoprofen; 3-Benzoylhydratropic acid; 3-Benzoyl-alpha-methylbenzeneacetic acid; 2-(3-Benzoylphenyl)propionic acid

> <IUPAC_NAME>
2-(3-benzoylphenyl)propanoic acid

> <FORMULA>
C16H14O3

> <MASS>
254.28056

> <MONOISOTOPIC_MASS>
254.09429

> <CHARGE>
0

> <SMILES>
CC(C(O)=O)c1cccc(c1)C(=O)c1ccccc1

> <INCHI>
InChI=1S/C16H14O3/c1-11(16(18)19)13-8-5-9-14(10-13)15(17)12-6-3-2-4-7-12/h2-11H,1H3,(H,18,19)

> <INCHIKEY>
DKYWVDODHFEZIM-UHFFFAOYSA-N

> <CAS_REGISTRY_NUMBER>
22071-15-4

> <REAXYS_REGISTRY_NUMBER>
2216071

> <CHEMIDPLUS>
22071-15-4

> <DRUGBANK_ACCESSION>
DB01009

> <HMDB_ACCESSION>
HMDB0015144

> <KEGG_COMPOUND_ACCESSION>
C01716

> <KEGG_DRUG_ACCESSION>
D00132

> <LINCS_ACCESSION>
LSM-1955

> <NIST_CHEMISTRY_WEBBOOK>
22071-15-4

> <WIKIPEDIA_ACCESSION>
Ketoprofen

> <PUBMED_CITATION>
11452775; 12772856; 18969772

$$$$

Marvin  03011119202D          

 11 11  0  0  1  0            999 V2000
   11.6601  -18.7931    0.0000 C   0  0  0  0  0  0  0  0  0  0  0  0
   10.9605  -18.3559    0.0000 C   0  0  0  0  0  0  0  0  0  0  0  0
   10.2484  -18.7931    0.0000 C   0  0  0  0  0  0  0  0  0  0  0  0
   10.2484  -19.6052    0.0000 C   0  0  0  0  0  0  0  0  0  0  0  0
   10.9605  -20.0425    0.0000 C   0  0  2  0  0  0  0  0  0  0  0  0
   11.6601  -19.6052    0.0000 C   0  0  0  0  0  0  0  0  0  0  0  0
   12.3847  -18.3933    0.0000 O   0  0  0  0  0  0  0  0  0  0  0  0
   10.9605  -20.8670    0.0000 C   0  0  0  0  0  0  0  0  0  0  0  0
   10.2359  -21.2792    0.0000 C   0  0  0  0  0  0  0  0  0  0  0  0
   11.6601  -21.2792    0.0000 C   0  0  0  0  0  0  0  0  0  0  0  0
   10.9605  -17.5314    0.0000 C   0  0  0  0  0  0  0  0  0  0  0  0
  2  1  1  0  0  0  0
  6  1  1  0  0  0  0
  7  1  2  0  0  0  0
  3  2  2  0  0  0  0
 11  2  1  0  0  0  0
  4  3  1  0  0  0  0
  5  4  1  0  0  0  0
  6  5  1  0  0  0  0
  5  8  1  6  0  0  0
  9  8  1  0  0  0  0
 10  8  1  0  0  0  0
M  END
> <ID>
CHEBI:61551

> <NAME>
(5R)-5-isopropyl-2-methyl-2-cyclohexen-1-one

> <DEFINITION>
A dihydrocarvone compound having the exocyclic isopropenyl double bond reduced and (R)-configuration.

> <STAR>
3

> <SYNONYM>
(R)-5-isopropyl-2-methyl-2-cyclohexen-1-one; (R)-(-)-carvotanacetone; (-)-(5R)-1-isopropyl-2-methyl-2-cyclohexen-1-one

> <IUPAC_NAME>
(5R)-2-methyl-5-(1-methylethyl)cyclohex-2-en-1-one

> <FORMULA>
C10H16O

> <MASS>
152.23340

> <MONOISOTOPIC_MASS>
152.12012

> <CHARGE>
0

> <SMILES>
CC(C)[C@@H]1CC=C(C)C(=O)C1

> <INCHI>
InChI=1S/C10H16O/c1-7(2)9-5-4-8(3)10(11)6-9/h4,7,9H,5-6H2,1-3H3/t9-/m1/s1

> <INCHIKEY>
WPGPCDVQHXOMQP-SECBINFHSA-N

> <REAXYS_REGISTRY_NUMBER>
2205068

> <PUBMED_CITATION>
11380545

$$$$

Marvin  03091111542D          

 23 24  0  0  1  0            999 V2000
   10.4415   -9.3985    0.0000 C   0  0  0  0  0  0  0  0  0  0  0  0
   10.4415  -10.2235    0.0000 C   0  0  2  0  0  0  0  0  0  0  0  0
    9.7270   -8.9858    0.0000 O   0  0  0  0  0  0  0  0  0  0  0  0
    9.7269  -10.6359    0.0000 C   0  0  2  0  0  0  0  0  0  0  0  0
    9.0125   -9.3983    0.0000 C   0  0  1  0  0  0  0  0  0  0  0  0
    9.0124  -10.2235    0.0000 C   0  0  1  0  0  0  0  0  0  0  0  0
    9.7267  -11.4609    0.0000 O   0  0  0  0  0  0  0  0  0  0  0  0
    8.2980  -10.6358    0.0000 O   0  0  0  0  0  0  0  0  0  0  0  0
    8.2981   -8.9858    0.0000 C   0  0  0  0  0  0  0  0  0  0  0  0
    7.5836   -9.3983    0.0000 O   0  0  0  0  0  0  0  0  0  0  0  0
   11.1559  -10.6359    0.0000 O   0  0  0  0  0  0  0  0  0  0  0  0
    6.8691   -8.9859    0.0000 C   0  0  2  0  0  0  0  0  0  0  0  0
    6.1548   -9.3985    0.0000 C   0  0  1  0  0  0  0  0  0  0  0  0
    6.8691   -8.1608    0.0000 O   0  0  0  0  0  0  0  0  0  0  0  0
    5.4402   -8.9860    0.0000 C   0  0  2  0  0  0  0  0  0  0  0  0
    6.1545   -7.7484    0.0000 C   0  0  1  0  0  0  0  0  0  0  0  0
    5.4400   -8.1610    0.0000 C   0  0  1  0  0  0  0  0  0  0  0  0
    6.1549  -10.2233    0.0000 O   0  0  0  0  0  0  0  0  0  0  0  0
    4.7257   -9.3985    0.0000 O   0  0  0  0  0  0  0  0  0  0  0  0
    4.7256   -7.7487    0.0000 O   0  0  0  0  0  0  0  0  0  0  0  0
    6.1544   -6.9235    0.0000 C   0  0  0  0  0  0  0  0  0  0  0  0
    5.4399   -6.5111    0.0000 O   0  0  0  0  0  0  0  0  0  0  0  0
   11.1560   -8.9862    0.0000 O   0  0  0  0  0  0  0  0  0  0  0  0
  1  2  1  0  0  0  0
  1  3  1  0  0  0  0
  2  4  1  0  0  0  0
  3  5  1  0  0  0  0
  4  6  1  0  0  0  0
  5  6  1  0  0  0  0
  4  7  1  1  0  0  0
  6  8  1  6  0  0  0
  5  9  1  1  0  0  0
 10  9  1  0  0  0  0
  2 11  1  1  0  0  0
 12 13  1  0  0  0  0
 12 14  1  0  0  0  0
 13 15  1  0  0  0  0
 14 16  1  0  0  0  0
 15 17  1  0  0  0  0
 16 17  1  0  0  0  0
 13 18  1  6  0  0  0
 15 19  1  1  0  0  0
 17 20  1  6  0  0  0
 16 21  1  1  0  0  0
 22 21  1  0  0  0  0
 12 10  1  6  0  0  0
  1 23  1  0  0  0  0
M  END
> <ID>
CHEBI:61625

> <NAME>
alpha-D-Glcp-(1->6)-D-Manp

> <DEFINITION>
A D-glucosyl-D-mannose with the two components joined by an α-(1→6)-linkage.

> <STAR>
3

> <SYNONYM>
epiisomaltose; alpha-D-glucosyl-(1->6)-D-mannose; alpha-D-Glc-(1->6)-D-Man; 6-O-alpha-D-glucopyranosyl-D-mannopyranose

> <IUPAC_NAME>
alpha-D-glucopyranosyl-(1->6)-D-mannopyranose

> <FORMULA>
C12H22O11

> <MASS>
342.29650

> <MONOISOTOPIC_MASS>
342.11621

> <CHARGE>
0

> <SMILES>
OC[C@H]1O[C@H](OC[C@H]2OC(O)[C@@H](O)[C@@H](O)[C@@H]2O)[C@H](O)[C@@H](O)[C@@H]1O

> <INCHI>
InChI=1S/C12H22O11/c13-1-3-5(14)8(17)10(19)12(23-3)21-2-4-6(15)7(16)9(18)11(20)22-4/h3-20H,1-2H2/t3-,4-,5-,6-,7+,8+,9+,10-,11?,12+/m1/s1

> <INCHIKEY>
DLRVVLDZNNYCBX-OSEFXCQPSA-N

> <REAXYS_REGISTRY_NUMBER>
1292774

> <PUBMED_CITATION>
11454337; 12851285; 1368530; 18184608

$$$$

Marvin  04011113572D          

 27 28  0  0  0  0            999 V2000
    5.7023   -4.3211    0.0000 C   0  0  0  0  0  0  0  0  0  0  0  0
    4.9877   -4.7336    0.0000 C   0  0  0  0  0  0  0  0  0  0  0  0
    4.9877   -5.5585    0.0000 C   0  0  0  0  0  0  0  0  0  0  0  0
    5.7023   -5.9711    0.0000 C   0  0  0  0  0  0  0  0  0  0  0  0
    6.4166   -4.7336    0.0000 C   0  0  0  0  0  0  0  0  0  0  0  0
    7.1312   -4.3211    0.0000 N   0  0  0  0  0  0  0  0  0  0  0  0
    7.8457   -4.7336    0.0000 C   0  0  0  0  0  0  0  0  0  0  0  0
    7.8457   -5.5585    0.0000 C   0  0  0  0  0  0  0  0  0  0  0  0
    8.5600   -5.9711    0.0000 C   0  0  0  0  0  0  0  0  0  0  0  0
    9.2746   -5.5585    0.0000 C   0  0  0  0  0  0  0  0  0  0  0  0
    9.2746   -4.7336    0.0000 C   0  0  0  0  0  0  0  0  0  0  0  0
    6.4166   -5.5585    0.0000 C   0  0  0  0  0  0  0  0  0  0  0  0
    7.1312   -5.9711    0.0000 Cl  0  0  0  0  0  0  0  0  0  0  0  0
    8.5600   -4.3211    0.0000 C   0  0  0  0  0  0  0  0  0  0  0  0
    5.7023   -3.4961    0.0000 Cl  0  0  0  0  0  0  0  0  0  0  0  0
    8.5601   -3.4962    0.0000 C   0  0  0  0  0  0  0  0  0  0  0  0
    9.2746   -2.2586    0.0000 O   0  0  0  0  0  0  0  0  0  0  0  0
    9.2746   -3.0837    0.0000 C   0  0  0  0  0  0  0  0  0  0  0  0
    9.9890   -3.4962    0.0000 O   0  0  0  0  0  0  0  0  0  0  0  0
    9.9890   -5.9711    0.0000 O   0  0  0  0  0  0  0  0  0  0  0  0
   10.7035   -5.5586    0.0000 C   0  0  0  0  0  0  0  0  0  0  0  0
   11.4180   -5.9711    0.0000 C   0  0  0  0  0  0  0  0  0  0  0  0
   12.1325   -5.5586    0.0000 O   0  0  0  0  0  0  0  0  0  0  0  0
   12.8470   -5.9711    0.0000 C   0  0  0  0  0  0  0  0  0  0  0  0
   13.5615   -5.5587    0.0000 C   0  0  0  0  0  0  0  0  0  0  0  0
   14.2760   -5.9712    0.0000 H   0  0  0  0  0  0  0  0  0  0  0  0
   13.5615   -4.7336    0.0000 O   0  0  0  0  0  0  0  0  0  0  0  0
  1 15  1  0  0  0  0
  1  2  2  0  0  0  0
  3  2  1  0  0  0  0
  4  3  2  0  0  0  0
  1  5  1  0  0  0  0
  5  6  1  0  0  0  0
  6  7  1  0  0  0  0
  8  7  2  0  0  0  0
  9  8  1  0  0  0  0
 10  9  2  0  0  0  0
 11 10  1  0  0  0  0
 12  4  1  0  0  0  0
  5 12  2  0  0  0  0
 12 13  1  0  0  0  0
 14  7  1  0  0  0  0
 14 11  2  0  0  0  0
 14 16  1  0  0  0  0
 16 18  1  0  0  0  0
 18 17  2  0  0  0  0
 18 19  1  0  0  0  0
 10 20  1  0  0  0  0
 20 21  1  0  0  0  0
 21 22  1  0  0  0  0
 22 23  1  0  0  0  0
 23 24  1  0  0  0  0
 24 25  1  0  0  0  0
 25 26  1  0  0  0  0
 25 27  2  0  0  0  0
M  END
> <ID>
CHEBI:61752

> <NAME>
5-[2-(2-oxoethoxy)ethoxy]-diclofenac

> <DEFINITION>
A member of the class of phenylacetic acids that is phenylacetic acid having a (2,6-dichlorophenyl)amino group at the 2-position and a 2-(2-oxoethoxy)ethoxy group at the 5-position.

> <STAR>
3

> <SYNONYM>
DF5der

> <IUPAC_NAME>
{2-[(2,6-dichlorophenyl)amino]-5-[2-(2-oxoethoxy)ethoxy]phenyl}acetic acid

> <FORMULA>
C18H17Cl2NO5

> <MASS>
398.23700

> <MONOISOTOPIC_MASS>
397.04838

> <CHARGE>
0

> <SMILES>
[H]C(=O)COCCOc1ccc(Nc2c(Cl)cccc2Cl)c(CC(O)=O)c1

> <INCHI>
InChI=1S/C18H17Cl2NO5/c19-14-2-1-3-15(20)18(14)21-16-5-4-13(10-12(16)11-17(23)24)26-9-8-25-7-6-22/h1-6,10,21H,7-9,11H2,(H,23,24)

> <INCHIKEY>
DEQMKNZAJVYQCL-UHFFFAOYSA-N

> <PUBMED_CITATION>
21060839

$$$$

Marvin  05181110052D          

 47 50  0  0  1  0            999 V2000
    3.8484   -6.7298    0.0000 O   0  0  0  0  0  0  0  0  0  0  0  0
    7.2751   -5.9474    0.0000 O   0  0  0  0  0  0  0  0  0  0  0  0
    6.5636   -6.3599    0.0000 C   0  0  2  0  0  0  0  0  0  0  0  0
    5.8961   -5.8751    0.0000 O   0  0  0  0  0  0  0  0  0  0  0  0
    6.3086   -7.1446    0.0000 C   0  0  2  0  0  0  0  0  0  0  0  0
    6.7212   -7.8590    0.0000 O   0  0  0  0  0  0  0  0  0  0  0  0
    5.4836   -7.1446    0.0000 C   0  0  1  0  0  0  0  0  0  0  0  0
    5.0711   -7.8590    0.0000 O   0  0  0  0  0  0  0  0  0  0  0  0
    4.2182   -5.3497    0.0000 C   0  0  0  0  0  0  0  0  0  0  0  0
    3.4213   -5.1362    0.0000 O   0  0  0  0  0  0  0  0  0  0  0  0
    4.4318   -6.1464    0.0000 C   0  0  2  0  0  0  0  0  0  0  0  0
    5.2286   -6.3599    0.0000 C   0  0  2  0  0  0  0  0  0  0  0  0
    5.2286   -5.5349    0.0000 H   0  0  0  0  0  0  0  0  0  0  0  0
    9.9903   -5.5776    0.0000 C   0  0  2  0  0  0  0  0  0  0  0  0
    9.3227   -5.0929    0.0000 O   0  0  0  0  0  0  0  0  0  0  0  0
    9.7352   -6.3622    0.0000 C   0  0  2  0  0  0  0  0  0  0  0  0
   10.1479   -7.0768    0.0000 O   0  0  0  0  0  0  0  0  0  0  0  0
    8.9102   -6.3622    0.0000 C   0  0  1  0  0  0  0  0  0  0  0  0
    8.4977   -7.0768    0.0000 O   0  0  0  0  0  0  0  0  0  0  0  0
    7.6449   -4.5673    0.0000 C   0  0  0  0  0  0  0  0  0  0  0  0
    6.8480   -4.3538    0.0000 O   0  0  0  0  0  0  0  0  0  0  0  0
    7.8585   -5.3642    0.0000 C   0  0  2  0  0  0  0  0  0  0  0  0
    8.6552   -5.5776    0.0000 C   0  0  2  0  0  0  0  0  0  0  0  0
    8.6552   -4.7527    0.0000 H   0  0  0  0  0  0  0  0  0  0  0  0
   10.7749   -5.3227    0.0000 O   0  0  0  0  0  0  0  0  0  0  0  0
   13.6326   -5.3229    0.0000 C   0  0  2  0  0  0  0  0  0  0  0  0
   13.6326   -6.1479    0.0000 C   0  0  2  0  0  0  0  0  0  0  0  0
   12.9183   -4.9104    0.0000 O   0  0  0  0  0  0  0  0  0  0  0  0
   12.9181   -6.5604    0.0000 C   0  0  2  0  0  0  0  0  0  0  0  0
   12.2037   -5.3228    0.0000 C   0  0  1  0  0  0  0  0  0  0  0  0
   12.2037   -6.1478    0.0000 C   0  0  1  0  0  0  0  0  0  0  0  0
   14.3471   -6.5604    0.0000 O   0  0  0  0  0  0  0  0  0  0  0  0
   12.9180   -7.3853    0.0000 O   0  0  0  0  0  0  0  0  0  0  0  0
   11.4893   -6.5602    0.0000 O   0  0  0  0  0  0  0  0  0  0  0  0
   11.4893   -4.9103    0.0000 C   0  0  0  0  0  0  0  0  0  0  0  0
   14.3471   -4.9105    0.0000 O   0  0  0  0  0  0  0  0  0  0  0  0
   17.2049   -4.9105    0.0000 C   0  0  0  0  0  0  0  0  0  0  0  0
   17.2049   -5.7355    0.0000 C   0  0  2  0  0  0  0  0  0  0  0  0
   16.4904   -4.4980    0.0000 O   0  0  0  0  0  0  0  0  0  0  0  0
   16.4904   -6.1480    0.0000 C   0  0  2  0  0  0  0  0  0  0  0  0
   15.7761   -4.9105    0.0000 C   0  0  1  0  0  0  0  0  0  0  0  0
   15.7761   -5.7355    0.0000 C   0  0  1  0  0  0  0  0  0  0  0  0
   17.9194   -4.4980    0.0000 O   0  0  0  0  0  0  0  0  0  0  0  0
   17.9194   -6.1480    0.0000 O   0  0  0  0  0  0  0  0  0  0  0  0
   16.4904   -6.9729    0.0000 O   0  0  0  0  0  0  0  0  0  0  0  0
   15.0616   -6.1480    0.0000 O   0  0  0  0  0  0  0  0  0  0  0  0
   15.0616   -4.4980    0.0000 C   0  0  0  0  0  0  0  0  0  0  0  0
  3  2  1  1  0  0  0
  5  3  1  0  0  0  0
  4  3  1  0  0  0  0
  4 12  1  0  0  0  0
 12  7  1  0  0  0  0
  7  5  1  0  0  0  0
  5  6  1  6  0  0  0
  7  8  1  1  0  0  0
 12 11  1  0  0  0  0
 11  9  1  0  0  0  0
  9 10  1  0  0  0  0
 11  1  1  6  0  0  0
 12 13  1  1  0  0  0
 16 14  1  0  0  0  0
 15 14  1  0  0  0  0
 15 23  1  0  0  0  0
 23 18  1  0  0  0  0
 18 16  1  0  0  0  0
 16 17  1  6  0  0  0
 18 19  1  1  0  0  0
 23 22  1  0  0  0  0
 22 20  1  0  0  0  0
 20 21  1  0  0  0  0
 22  2  1  6  0  0  0
 23 24  1  1  0  0  0
 14 25  1  1  0  0  0
 26 27  1  0  0  0  0
 26 28  1  0  0  0  0
 27 29  1  0  0  0  0
 28 30  1  0  0  0  0
 29 31  1  0  0  0  0
 30 31  1  0  0  0  0
 27 32  1  1  0  0  0
 29 33  1  1  0  0  0
 31 34  1  6  0  0  0
 30 35  1  1  0  0  0
 25 35  1  0  0  0  0
 26 36  1  6  0  0  0
 37 38  1  0  0  0  0
 37 39  1  0  0  0  0
 38 40  1  0  0  0  0
 39 41  1  0  0  0  0
 40 42  1  0  0  0  0
 41 42  1  0  0  0  0
 37 43  1  0  0  0  0
 38 44  1  1  0  0  0
 40 45  1  1  0  0  0
 42 46  1  6  0  0  0
 41 47  1  1  0  0  0
 36 47  1  0  0  0  0
M  END
> <ID>
CHEBI:62142

> <NAME>
beta-D-Galf-(1->5)-beta-D-Galf-(1->6)-alpha-D-Manp-(1->6)-D-Manp

> <DEFINITION>
A tetrasaccharide consisting of two (1→5)-linked β-D-galactofuranose units, which are in turn linked (1→6) to α-D-mannopyranosyl-(1→6)-D-mannopyranose.

> <STAR>
3

> <SYNONYM>
beta-D-galactofuranosyl-(1->5)-beta-D-galactofuranosyl-(1->6)-alpha-D-mannosyl-(1->6)-D-mannose

> <IUPAC_NAME>
beta-D-galactofuranosyl-(1->5)-beta-D-galactofuranosyl-(1->6)-alpha-D-mannopyranosyl-(1->6)-D-mannopyranose

> <FORMULA>
C24H42O21

> <MASS>
666.57770

> <MONOISOTOPIC_MASS>
666.22186

> <CHARGE>
0

> <SMILES>
[H][C@]1(O[C@@H](O[C@H](CO)[C@]2([H])O[C@@H](OC[C@H]3O[C@H](OC[C@H]4OC(O)[C@@H](O)[C@@H](O)[C@@H]4O)[C@@H](O)[C@@H](O)[C@@H]3O)[C@H](O)[C@H]2O)[C@H](O)[C@H]1O)[C@H](O)CO

> <INCHI>
InChI=1S/C24H42O21/c25-1-5(27)19-13(32)18(37)24(44-19)42-6(2-26)20-14(33)17(36)23(45-20)40-4-8-10(29)12(31)16(35)22(43-8)39-3-7-9(28)11(30)15(34)21(38)41-7/h5-38H,1-4H2/t5-,6-,7-,8-,9-,10-,11+,12+,13-,14-,15+,16+,17-,18-,19+,20+,21?,22+,23-,24-/m1/s1

> <INCHIKEY>
LRJLWKYECUQPDF-YKPCVMMMSA-N

> <PUBMED_CITATION>
12851285

$$$$

Marvin  05181111372D          

 35 37  0  0  1  0            999 V2000
    8.5411   -5.1172    0.0000 O   0  0  0  0  0  0  0  0  0  0  0  0
   11.2563   -4.7473    0.0000 C   0  0  2  0  0  0  0  0  0  0  0  0
   10.5887   -4.2626    0.0000 O   0  0  0  0  0  0  0  0  0  0  0  0
   11.0012   -5.5320    0.0000 C   0  0  2  0  0  0  0  0  0  0  0  0
   11.4139   -6.2466    0.0000 O   0  0  0  0  0  0  0  0  0  0  0  0
   10.1762   -5.5320    0.0000 C   0  0  1  0  0  0  0  0  0  0  0  0
    9.7637   -6.2466    0.0000 O   0  0  0  0  0  0  0  0  0  0  0  0
    8.9109   -3.7371    0.0000 C   0  0  0  0  0  0  0  0  0  0  0  0
    8.1140   -3.5236    0.0000 O   0  0  0  0  0  0  0  0  0  0  0  0
    9.1245   -4.5340    0.0000 C   0  0  2  0  0  0  0  0  0  0  0  0
    9.9212   -4.7473    0.0000 C   0  0  2  0  0  0  0  0  0  0  0  0
    9.9212   -3.9225    0.0000 H   0  0  0  0  0  0  0  0  0  0  0  0
   12.0409   -4.4925    0.0000 O   0  0  0  0  0  0  0  0  0  0  0  0
   14.8986   -4.4927    0.0000 C   0  0  2  0  0  0  0  0  0  0  0  0
   14.8986   -5.3177    0.0000 C   0  0  2  0  0  0  0  0  0  0  0  0
   14.1843   -4.0802    0.0000 O   0  0  0  0  0  0  0  0  0  0  0  0
   14.1841   -5.7302    0.0000 C   0  0  2  0  0  0  0  0  0  0  0  0
   13.4697   -4.4926    0.0000 C   0  0  1  0  0  0  0  0  0  0  0  0
   13.4697   -5.3176    0.0000 C   0  0  1  0  0  0  0  0  0  0  0  0
   15.6131   -5.7302    0.0000 O   0  0  0  0  0  0  0  0  0  0  0  0
   14.1840   -6.5551    0.0000 O   0  0  0  0  0  0  0  0  0  0  0  0
   12.7553   -5.7300    0.0000 O   0  0  0  0  0  0  0  0  0  0  0  0
   12.7553   -4.0801    0.0000 C   0  0  0  0  0  0  0  0  0  0  0  0
   15.6131   -4.0803    0.0000 O   0  0  0  0  0  0  0  0  0  0  0  0
   18.4709   -4.0803    0.0000 C   0  0  0  0  0  0  0  0  0  0  0  0
   18.4709   -4.9053    0.0000 C   0  0  2  0  0  0  0  0  0  0  0  0
   17.7564   -3.6678    0.0000 O   0  0  0  0  0  0  0  0  0  0  0  0
   17.7564   -5.3178    0.0000 C   0  0  2  0  0  0  0  0  0  0  0  0
   17.0421   -4.0803    0.0000 C   0  0  1  0  0  0  0  0  0  0  0  0
   17.0421   -4.9053    0.0000 C   0  0  1  0  0  0  0  0  0  0  0  0
   19.1854   -3.6678    0.0000 O   0  0  0  0  0  0  0  0  0  0  0  0
   19.1854   -5.3178    0.0000 O   0  0  0  0  0  0  0  0  0  0  0  0
   17.7564   -6.1427    0.0000 O   0  0  0  0  0  0  0  0  0  0  0  0
   16.3276   -5.3178    0.0000 O   0  0  0  0  0  0  0  0  0  0  0  0
   16.3276   -3.6678    0.0000 C   0  0  0  0  0  0  0  0  0  0  0  0
  4  2  1  0  0  0  0
  3  2  1  0  0  0  0
  3 11  1  0  0  0  0
 11  6  1  0  0  0  0
  6  4  1  0  0  0  0
  4  5  1  6  0  0  0
  6  7  1  1  0  0  0
 11 10  1  0  0  0  0
 10  8  1  0  0  0  0
  8  9  1  0  0  0  0
 10  1  1  6  0  0  0
 11 12  1  1  0  0  0
  2 13  1  1  0  0  0
 14 15  1  0  0  0  0
 14 16  1  0  0  0  0
 15 17  1  0  0  0  0
 16 18  1  0  0  0  0
 17 19  1  0  0  0  0
 18 19  1  0  0  0  0
 15 20  1  1  0  0  0
 17 21  1  1  0  0  0
 19 22  1  6  0  0  0
 18 23  1  1  0  0  0
 13 23  1  0  0  0  0
 14 24  1  6  0  0  0
 25 26  1  0  0  0  0
 25 27  1  0  0  0  0
 26 28  1  0  0  0  0
 27 29  1  0  0  0  0
 28 30  1  0  0  0  0
 29 30  1  0  0  0  0
 25 31  1  0  0  0  0
 26 32  1  1  0  0  0
 28 33  1  1  0  0  0
 30 34  1  6  0  0  0
 29 35  1  1  0  0  0
 24 35  1  0  0  0  0
M  END
> <ID>
CHEBI:62145

> <NAME>
beta-D-Galf-(1->6)-alpha-D-Manp-(1->6)-D-Manp

> <DEFINITION>
A trisaccharide consisting of D-mannose at the reducing end having a β-D-galactofuranosyl-(1→6)-α-D-mannosyl moiety attached at the 6-position.

> <STAR>
3

> <SYNONYM>
beta-D-galactofuranosyl-(1->6)-alpha-D-mannosyl-(1->6)-D-mannose

> <IUPAC_NAME>
beta-D-galactofuranosyl-(1->6)-alpha-D-mannopyranosyl-(1->6)-D-mannopyranose

> <FORMULA>
C18H32O16

> <MASS>
504.43710

> <MONOISOTOPIC_MASS>
504.16903

> <CHARGE>
0

> <SMILES>
[H][C@]1(O[C@@H](OC[C@H]2O[C@H](OC[C@H]3OC(O)[C@@H](O)[C@@H](O)[C@@H]3O)[C@@H](O)[C@@H](O)[C@@H]2O)[C@H](O)[C@H]1O)[C@H](O)CO

> <INCHI>
InChI=1S/C18H32O16/c19-1-4(20)15-11(25)14(28)18(34-15)31-3-6-8(22)10(24)13(27)17(33-6)30-2-5-7(21)9(23)12(26)16(29)32-5/h4-29H,1-3H2/t4-,5-,6-,7-,8-,9+,10+,11-,12+,13+,14-,15+,16?,17+,18-/m1/s1

> <INCHIKEY>
SIVQKQRXNQELBG-RQRWEYPZSA-N

> <PUBMED_CITATION>
12851285

$$$$

Marvin  06151111472D          

 37 39  0  0  1  0            999 V2000
   13.8556   -2.4847    0.0000 O   0  0  0  0  0  0  0  0  0  0  0  0
   13.1413   -2.8972    0.0000 C   0  0  1  0  0  0  0  0  0  0  0  0
   13.1413   -3.7222    0.0000 C   0  0  1  0  0  0  0  0  0  0  0  0
   12.4268   -2.4847    0.0000 O   0  0  0  0  0  0  0  0  0  0  0  0
   12.4268   -4.1347    0.0000 C   0  0  2  0  0  0  0  0  0  0  0  0
   11.7123   -2.8972    0.0000 C   0  0  1  0  0  0  0  0  0  0  0  0
   11.7123   -3.7222    0.0000 C   0  0  1  0  0  0  0  0  0  0  0  0
   13.8556   -4.1347    0.0000 N   0  0  0  0  0  0  0  0  0  0  0  0
   12.4267   -4.9597    0.0000 O   0  0  0  0  0  0  0  0  0  0  0  0
   10.9979   -4.1347    0.0000 O   0  0  0  0  0  0  0  0  0  0  0  0
   10.9979   -2.4847    0.0000 C   0  0  0  0  0  0  0  0  0  0  0  0
   10.2833   -2.8972    0.0000 O   0  0  0  0  0  0  0  0  0  0  0  0
   13.8556   -4.9597    0.0000 C   0  0  0  0  0  0  0  0  0  0  0  0
   14.5701   -5.3722    0.0000 O   0  0  0  0  0  0  0  0  0  0  0  0
   13.1413   -5.3722    0.0000 C   0  0  0  0  0  0  0  0  0  0  0  0
   10.2834   -4.5472    0.0000 C   0  0  1  0  0  0  0  0  0  0  0  0
   10.2834   -5.3722    0.0000 C   0  0  1  0  0  0  0  0  0  0  0  0
    9.5689   -4.1347    0.0000 O   0  0  0  0  0  0  0  0  0  0  0  0
    9.5689   -5.7849    0.0000 C   0  0  2  0  0  0  0  0  0  0  0  0
    8.8545   -4.5472    0.0000 C   0  0  1  0  0  0  0  0  0  0  0  0
    8.8545   -5.3722    0.0000 C   0  0  2  0  0  0  0  0  0  0  0  0
   10.9979   -5.7849    0.0000 O   0  0  0  0  0  0  0  0  0  0  0  0
    9.5688   -6.6099    0.0000 O   0  0  0  0  0  0  0  0  0  0  0  0
    8.1399   -5.7849    0.0000 O   0  0  0  0  0  0  0  0  0  0  0  0
    8.1399   -4.1347    0.0000 C   0  0  0  0  0  0  0  0  0  0  0  0
    7.4256   -4.5472    0.0000 O   0  0  0  0  0  0  0  0  0  0  0  0
    8.8543   -7.0222    0.0000 C   0  0  2  0  0  0  0  0  0  0  0  0
    8.8543   -7.8472    0.0000 C   0  0  1  0  0  0  0  0  0  0  0  0
    8.1399   -6.6099    0.0000 O   0  0  0  0  0  0  0  0  0  0  0  0
    8.1399   -8.2597    0.0000 C   0  0  2  0  0  0  0  0  0  0  0  0
    7.4255   -7.0222    0.0000 C   0  0  1  0  0  0  0  0  0  0  0  0
    7.4255   -7.8472    0.0000 C   0  0  2  0  0  0  0  0  0  0  0  0
    9.5688   -8.2597    0.0000 O   0  0  0  0  0  0  0  0  0  0  0  0
    8.1399   -9.0847    0.0000 O   0  0  0  0  0  0  0  0  0  0  0  0
    6.7110   -8.2597    0.0000 O   0  0  0  0  0  0  0  0  0  0  0  0
    6.7110   -6.6099    0.0000 C   0  0  0  0  0  0  0  0  0  0  0  0
    5.9965   -7.0222    0.0000 O   0  0  0  0  0  0  0  0  0  0  0  0
  2  3  1  0  0  0  0
  2  4  1  0  0  0  0
  3  5  1  0  0  0  0
  4  6  1  0  0  0  0
  5  7  1  0  0  0  0
  6  7  1  0  0  0  0
  2  1  1  1  0  0  0
  3  8  1  6  0  0  0
  5  9  1  1  0  0  0
  7 10  1  6  0  0  0
  6 11  1  1  0  0  0
 12 11  1  0  0  0  0
 14 13  2  0  0  0  0
 15 13  1  0  0  0  0
  8 13  1  0  0  0  0
 16 17  1  0  0  0  0
 16 18  1  0  0  0  0
 17 19  1  0  0  0  0
 18 20  1  0  0  0  0
 19 21  1  0  0  0  0
 20 21  1  0  0  0  0
 16 10  1  1  0  0  0
 17 22  1  6  0  0  0
 19 23  1  1  0  0  0
 21 24  1  1  0  0  0
 20 25  1  1  0  0  0
 26 25  1  0  0  0  0
 27 28  1  0  0  0  0
 27 29  1  0  0  0  0
 28 30  1  0  0  0  0
 29 31  1  0  0  0  0
 30 32  1  0  0  0  0
 31 32  1  0  0  0  0
 27 23  1  6  0  0  0
 28 33  1  6  0  0  0
 30 34  1  1  0  0  0
 32 35  1  1  0  0  0
 31 36  1  1  0  0  0
 37 36  1  0  0  0  0
M  END
> <ID>
CHEBI:62327

> <NAME>
alpha-D-Galp-(1->3)-beta-D-Galp-(1->4)-beta-D-GlcpNAc

> <DEFINITION>
An α-D-Gal-(1→3)-β-D-Gal-(1→4)-D-GlcNAc having β-configuration at the reducing end anomeric centre.

> <STAR>
3

> <SYNONYM>
Galalpha1-3Galbeta1-4GlcNAcbeta; Galalpha(1,3)Galbeta(1,4)GlcNAcbeta; Gala1-3Galb1-4GlcNAcb; alphaGal(1->3)betaGal(1->4)betaGlcNAc; alpha-Gal-OH; alpha-D-galactosyl-(1->3)-beta-D-galactosyl-(1->4)-N-acetyl-beta-D-glucosamine; alpha-D-Gal-(1->3)-beta-D-Gal-(1->4)-beta-D-GlcNAc

> <IUPAC_NAME>
alpha-D-galactopyranosyl-(1->3)-beta-D-galactopyranosyl-(1->4)-2-acetamido-2-deoxy-beta-D-glucopyranose

> <FORMULA>
C20H35NO16

> <MASS>
545.48900

> <MONOISOTOPIC_MASS>
545.19558

> <CHARGE>
0

> <SMILES>
CC(=O)N[C@H]1[C@H](O)O[C@H](CO)[C@@H](O[C@@H]2O[C@H](CO)[C@H](O)[C@H](O[C@H]3O[C@H](CO)[C@H](O)[C@H](O)[C@H]3O)[C@H]2O)[C@@H]1O

> <INCHI>
InChI=1S/C20H35NO16/c1-5(25)21-9-12(28)16(8(4-24)33-18(9)32)36-20-15(31)17(11(27)7(3-23)35-20)37-19-14(30)13(29)10(26)6(2-22)34-19/h6-20,22-24,26-32H,2-4H2,1H3,(H,21,25)/t6-,7-,8-,9-,10+,11+,12-,13+,14-,15-,16-,17+,18-,19-,20+/m1/s1

> <INCHIKEY>
NNISLDGFPWIBDF-LQHNAXJESA-N

> <REAXYS_REGISTRY_NUMBER>
7558012

> <KEGG_COMPOUND_ACCESSION>
C04847

> <KEGG_GLYCAN_ACCESSION>
G00304

> <PUBMED_CITATION>
11792992; 19443021; 25568069; 26812026; 31537530; 7521740; 9458010

$$$$

Marvin  06151112202D          

 23 24  0  0  1  0            999 V2000
   10.9979   -4.1347    0.0000 O   0  0  0  0  0  0  0  0  0  0  0  0
   10.2834   -4.5472    0.0000 C   0  0  1  0  0  0  0  0  0  0  0  0
   10.2834   -5.3722    0.0000 C   0  0  1  0  0  0  0  0  0  0  0  0
    9.5689   -4.1347    0.0000 O   0  0  0  0  0  0  0  0  0  0  0  0
    9.5689   -5.7849    0.0000 C   0  0  2  0  0  0  0  0  0  0  0  0
    8.8545   -4.5472    0.0000 C   0  0  1  0  0  0  0  0  0  0  0  0
    8.8545   -5.3722    0.0000 C   0  0  2  0  0  0  0  0  0  0  0  0
   10.9979   -5.7849    0.0000 O   0  0  0  0  0  0  0  0  0  0  0  0
    9.5688   -6.6099    0.0000 O   0  0  0  0  0  0  0  0  0  0  0  0
    8.1399   -5.7849    0.0000 O   0  0  0  0  0  0  0  0  0  0  0  0
    8.1399   -4.1347    0.0000 C   0  0  0  0  0  0  0  0  0  0  0  0
    7.4256   -4.5472    0.0000 O   0  0  0  0  0  0  0  0  0  0  0  0
    8.8543   -7.0222    0.0000 C   0  0  2  0  0  0  0  0  0  0  0  0
    8.8543   -7.8472    0.0000 C   0  0  1  0  0  0  0  0  0  0  0  0
    8.1399   -6.6099    0.0000 O   0  0  0  0  0  0  0  0  0  0  0  0
    8.1399   -8.2597    0.0000 C   0  0  2  0  0  0  0  0  0  0  0  0
    7.4255   -7.0222    0.0000 C   0  0  1  0  0  0  0  0  0  0  0  0
    7.4255   -7.8472    0.0000 C   0  0  2  0  0  0  0  0  0  0  0  0
    9.5688   -8.2597    0.0000 O   0  0  0  0  0  0  0  0  0  0  0  0
    8.1399   -9.0847    0.0000 O   0  0  0  0  0  0  0  0  0  0  0  0
    6.7110   -8.2597    0.0000 O   0  0  0  0  0  0  0  0  0  0  0  0
    6.7110   -6.6099    0.0000 C   0  0  0  0  0  0  0  0  0  0  0  0
    5.9965   -7.0222    0.0000 O   0  0  0  0  0  0  0  0  0  0  0  0
  2  3  1  0  0  0  0
  2  4  1  0  0  0  0
  3  5  1  0  0  0  0
  4  6  1  0  0  0  0
  5  7  1  0  0  0  0
  6  7  1  0  0  0  0
  2  1  1  1  0  0  0
  3  8  1  6  0  0  0
  5  9  1  1  0  0  0
  7 10  1  1  0  0  0
  6 11  1  1  0  0  0
 12 11  1  0  0  0  0
 13 14  1  0  0  0  0
 13 15  1  0  0  0  0
 14 16  1  0  0  0  0
 15 17  1  0  0  0  0
 16 18  1  0  0  0  0
 17 18  1  0  0  0  0
 13  9  1  6  0  0  0
 14 19  1  6  0  0  0
 16 20  1  1  0  0  0
 18 21  1  1  0  0  0
 17 22  1  1  0  0  0
 23 22  1  0  0  0  0
M  END
> <ID>
CHEBI:62330

> <NAME>
alpha-D-Galp-(1->3)-beta-D-Galp

> <DEFINITION>
A glycosylgalactose that consists of β-D-galactose having an α-D-galactosyl residue at the 3-position.

> <STAR>
3

> <SYNONYM>
Galalpha1-3Galbeta; Gala1-3Galb; alphaGal1-3betaGal; alphaGal(1->3)betaGal; alpha-D-galactosyl-(1->3)-beta-D-galactose; alpha-D-Gal-(1->3)-beta-D-Gal; 3-O-alpha-D-galactopyranosyl-beta-D-galactopyranose

> <IUPAC_NAME>
alpha-D-galactopyranosyl-(1->3)-beta-D-galactopyranose

> <FORMULA>
C12H22O11

> <MASS>
342.29650

> <MONOISOTOPIC_MASS>
342.11621

> <CHARGE>
0

> <SMILES>
OC[C@H]1O[C@H](O[C@@H]2[C@@H](O)[C@H](O)O[C@H](CO)[C@@H]2O)[C@H](O)[C@@H](O)[C@H]1O

> <INCHI>
InChI=1S/C12H22O11/c13-1-3-5(15)7(17)8(18)12(22-3)23-10-6(16)4(2-14)21-11(20)9(10)19/h3-20H,1-2H2/t3-,4-,5+,6+,7+,8-,9-,10+,11-,12-/m1/s1

> <INCHIKEY>
QIGJYVCQYDKYDW-VZGRRIPQSA-N

> <REAXYS_REGISTRY_NUMBER>
1625914

> <PUBMED_CITATION>
10629950; 19443021; 25568069; 31537530; 7438134; 7521740; 8154046; 9806390

$$$$

Marvin  06201110452D          

 43 46  0  0  1  0            999 V2000
   15.0145   -7.7270    0.0000 C   0  0  1  0  0  0  0  0  0  0  0  0
   15.7290   -8.1395    0.0000 C   0  0  1  0  0  0  0  0  0  0  0  0
   14.3000   -8.1396    0.0000 O   0  0  0  0  0  0  0  0  0  0  0  0
   15.7290   -8.9645    0.0000 C   0  0  2  0  0  0  0  0  0  0  0  0
   14.3000   -8.9645    0.0000 C   0  0  0  0  0  0  0  0  0  0  0  0
   15.0145   -9.3770    0.0000 C   0  0  1  0  0  0  0  0  0  0  0  0
   16.4435   -7.7270    0.0000 O   0  0  0  0  0  0  0  0  0  0  0  0
   16.4435   -9.3770    0.0000 O   0  0  0  0  0  0  0  0  0  0  0  0
   15.0146  -10.2021    0.0000 O   0  0  0  0  0  0  0  0  0  0  0  0
   15.0145   -6.9020    0.0000 O   0  0  0  0  0  0  0  0  0  0  0  0
   10.7276   -5.2519    0.0000 C   0  0  2  0  0  0  0  0  0  0  0  0
   10.0131   -5.6644    0.0000 C   0  0  2  0  0  0  0  0  0  0  0  0
   10.7276   -4.4268    0.0000 O   0  0  0  0  0  0  0  0  0  0  0  0
    9.2986   -5.2516    0.0000 C   0  0  2  0  0  0  0  0  0  0  0  0
   10.0132   -4.0143    0.0000 C   0  0  1  0  0  0  0  0  0  0  0  0
    9.2987   -4.4268    0.0000 C   0  0  1  0  0  0  0  0  0  0  0  0
   10.0130   -6.4893    0.0000 O   0  0  0  0  0  0  0  0  0  0  0  0
    8.5842   -5.6641    0.0000 O   0  0  0  0  0  0  0  0  0  0  0  0
    8.5844   -4.0142    0.0000 O   0  0  0  0  0  0  0  0  0  0  0  0
   10.0133   -3.1894    0.0000 C   0  0  0  0  0  0  0  0  0  0  0  0
    9.2988   -2.7768    0.0000 O   0  0  0  0  0  0  0  0  0  0  0  0
   11.4420   -5.6645    0.0000 O   0  0  0  0  0  0  0  0  0  0  0  0
   14.3000   -5.6645    0.0000 C   0  0  1  0  0  0  0  0  0  0  0  0
   14.3000   -6.4895    0.0000 C   0  0  2  0  0  0  0  0  0  0  0  0
   13.5855   -5.2519    0.0000 O   0  0  0  0  0  0  0  0  0  0  0  0
   13.5855   -6.9020    0.0000 C   0  0  2  0  0  0  0  0  0  0  0  0
   12.8710   -5.6645    0.0000 C   0  0  1  0  0  0  0  0  0  0  0  0
   12.8710   -6.4895    0.0000 C   0  0  1  0  0  0  0  0  0  0  0  0
   15.0145   -5.2519    0.0000 O   0  0  0  0  0  0  0  0  0  0  0  0
   13.5855   -7.7269    0.0000 O   0  0  0  0  0  0  0  0  0  0  0  0
   12.1566   -6.9020    0.0000 O   0  0  0  0  0  0  0  0  0  0  0  0
   12.1566   -5.2519    0.0000 C   0  0  0  0  0  0  0  0  0  0  0  0
   12.8710   -8.1394    0.0000 C   0  0  2  0  0  0  0  0  0  0  0  0
   12.8710   -8.9644    0.0000 C   0  0  2  0  0  0  0  0  0  0  0  0
   12.1564   -7.7269    0.0000 O   0  0  0  0  0  0  0  0  0  0  0  0
   12.1564   -9.3769    0.0000 C   0  0  2  0  0  0  0  0  0  0  0  0
   11.4420   -8.1394    0.0000 C   0  0  1  0  0  0  0  0  0  0  0  0
   11.4420   -8.9644    0.0000 C   0  0  1  0  0  0  0  0  0  0  0  0
   13.5854   -9.3769    0.0000 O   0  0  0  0  0  0  0  0  0  0  0  0
   12.1564  -10.2019    0.0000 O   0  0  0  0  0  0  0  0  0  0  0  0
   10.7276   -9.3769    0.0000 O   0  0  0  0  0  0  0  0  0  0  0  0
   10.7276   -7.7269    0.0000 C   0  0  0  0  0  0  0  0  0  0  0  0
   10.0131   -8.1395    0.0000 O   0  0  0  0  0  0  0  0  0  0  0  0
  1  2  1  0  0  0  0
  1  3  1  0  0  0  0
  2  4  1  0  0  0  0
  3  5  1  0  0  0  0
  4  6  1  0  0  0  0
  5  6  1  0  0  0  0
  2  7  1  6  0  0  0
  4  8  1  1  0  0  0
  6  9  1  6  0  0  0
  1 10  1  1  0  0  0
 11 12  1  0  0  0  0
 11 13  1  0  0  0  0
 12 14  1  0  0  0  0
 13 15  1  0  0  0  0
 14 16  1  0  0  0  0
 15 16  1  0  0  0  0
 12 17  1  1  0  0  0
 14 18  1  1  0  0  0
 16 19  1  6  0  0  0
 15 20  1  1  0  0  0
 21 20  1  0  0  0  0
 11 22  1  6  0  0  0
 23 24  1  0  0  0  0
 23 25  1  0  0  0  0
 24 26  1  0  0  0  0
 25 27  1  0  0  0  0
 26 28  1  0  0  0  0
 27 28  1  0  0  0  0
 23 29  1  1  0  0  0
 24 10  1  1  0  0  0
 26 30  1  1  0  0  0
 28 31  1  6  0  0  0
 27 32  1  1  0  0  0
 22 32  1  0  0  0  0
 33 34  1  0  0  0  0
 33 35  1  0  0  0  0
 34 36  1  0  0  0  0
 35 37  1  0  0  0  0
 36 38  1  0  0  0  0
 37 38  1  0  0  0  0
 34 39  1  1  0  0  0
 36 40  1  1  0  0  0
 38 41  1  6  0  0  0
 37 42  1  1  0  0  0
 43 42  1  0  0  0  0
 33 30  1  6  0  0  0
M  END
> <ID>
CHEBI:62376

> <NAME>
alpha-D-Manp-(1->3)-[alpha-D-Manp-(1->6)]-[beta-D-Xylp-(1->2)]-beta-D-Manp

> <DEFINITION>
A branched tetrasaccharide consisting of β-D-mannose having two α-D-mannosyl residues attached at the 3- and 6-positions as well as a β-D-xylosyl residue at the 2-position.

> <STAR>
3

> <SYNONYM>
alpha-D-mannosyl-(1->3)-[alpha-D-mannosyl-(1->6)]-[beta-D-xylosyl-(1->2)]-beta-D-mannose; alpha-D-Man-(1->3)-[alpha-D-Man-(1->6)]-[beta-D-Xyl-(1->2)]-beta-D-Man

> <IUPAC_NAME>
alpha-D-mannopyranosyl-(1->3)-[alpha-D-mannopyranosyl-(1->6)]-[beta-D-xylopyranosyl-(1->2)]-beta-D-mannopyranose

> <FORMULA>
C23H40O20

> <MASS>
636.55170

> <MONOISOTOPIC_MASS>
636.21129

> <CHARGE>
0

> <SMILES>
OC[C@H]1O[C@H](OC[C@H]2O[C@@H](O)[C@@H](O[C@@H]3OC[C@@H](O)[C@H](O)[C@H]3O)[C@@H](O[C@H]3O[C@H](CO)[C@@H](O)[C@H](O)[C@@H]3O)[C@@H]2O)[C@@H](O)[C@@H](O)[C@@H]1O

> <INCHI>
InChI=1S/C23H40O20/c24-1-6-10(28)13(31)16(34)21(40-6)38-4-8-12(30)18(42-23-17(35)14(32)11(29)7(2-25)41-23)19(20(36)39-8)43-22-15(33)9(27)5(26)3-37-22/h5-36H,1-4H2/t5-,6-,7-,8-,9+,10-,11-,12-,13+,14+,15-,16+,17+,18+,19+,20-,21+,22+,23-/m1/s1

> <INCHIKEY>
WTURILBWOMJRQX-USCICLFSSA-N

> <PUBMED_CITATION>
21237664

$$$$

Marvin  06201111192D          

 39 41  0  0  1  0            999 V2000
   12.2672   -5.9342    0.0000 C   0  0  1  0  0  0  0  0  0  0  0  0
   12.9818   -5.5217    0.0000 C   0  0  2  0  0  0  0  0  0  0  0  0
   12.2672   -6.7591    0.0000 O   0  0  0  0  0  0  0  0  0  0  0  0
   11.5528   -5.5217    0.0000 C   0  0  1  0  0  0  0  0  0  0  0  0
   12.9818   -4.6966    0.0000 C   0  0  1  0  0  0  0  0  0  0  0  0
   11.5528   -4.6966    0.0000 C   0  0  2  0  0  0  0  0  0  0  0  0
   10.8383   -5.9342    0.0000 O   0  0  0  0  0  0  0  0  0  0  0  0
   12.2672   -4.2841    0.0000 O   0  0  0  0  0  0  0  0  0  0  0  0
   13.6962   -4.2841    0.0000 O   0  0  0  0  0  0  0  0  0  0  0  0
   10.8383   -4.2841    0.0000 C   0  0  0  0  0  0  0  0  0  0  0  0
   13.6962   -5.9342    0.0000 N   0  0  0  0  0  0  0  0  0  0  0  0
   14.4106   -5.5217    0.0000 C   0  0  0  0  0  0  0  0  0  0  0  0
   15.1251   -5.9342    0.0000 C   0  0  0  0  0  0  0  0  0  0  0  0
   14.4106   -4.6966    0.0000 O   0  0  0  0  0  0  0  0  0  0  0  0
   10.8383   -3.4591    0.0000 O   0  0  0  0  0  0  0  0  0  0  0  0
    8.6949   -4.6966    0.0000 C   0  0  1  0  0  0  0  0  0  0  0  0
    8.6949   -5.5216    0.0000 C   0  0  1  0  0  0  0  0  0  0  0  0
   10.1238   -5.5217    0.0000 C   0  0  2  0  0  0  0  0  0  0  0  0
   10.1238   -4.6966    0.0000 O   0  0  0  0  0  0  0  0  0  0  0  0
    9.4094   -5.9341    0.0000 C   0  0  2  0  0  0  0  0  0  0  0  0
    9.4094   -4.2841    0.0000 C   0  0  2  0  0  0  0  0  0  0  0  0
    9.4093   -6.7591    0.0000 N   0  0  0  0  0  0  0  0  0  0  0  0
    7.9804   -5.9341    0.0000 O   0  0  0  0  0  0  0  0  0  0  0  0
    7.9805   -4.2841    0.0000 O   0  0  0  0  0  0  0  0  0  0  0  0
    9.4094   -3.4591    0.0000 C   0  0  0  0  0  0  0  0  0  0  0  0
    8.6950   -3.0466    0.0000 O   0  0  0  0  0  0  0  0  0  0  0  0
   11.5527   -7.9966    0.0000 O   0  0  0  0  0  0  0  0  0  0  0  0
   11.5526   -8.8216    0.0000 C   0  0  2  0  0  0  0  0  0  0  0  0
   12.2672   -7.5841    0.0000 C   0  0  2  0  0  0  0  0  0  0  0  0
   12.9816   -7.9966    0.0000 C   0  0  2  0  0  0  0  0  0  0  0  0
   12.9815   -8.8216    0.0000 C   0  0  1  0  0  0  0  0  0  0  0  0
   12.2671   -9.2341    0.0000 C   0  0  2  0  0  0  0  0  0  0  0  0
   13.6962   -7.5842    0.0000 O   0  0  0  0  0  0  0  0  0  0  0  0
   13.6961   -9.2342    0.0000 O   0  0  0  0  0  0  0  0  0  0  0  0
   12.2671  -10.0591    0.0000 O   0  0  0  0  0  0  0  0  0  0  0  0
   10.8381   -9.2340    0.0000 C   0  0  0  0  0  0  0  0  0  0  0  0
    8.6948   -7.1715    0.0000 C   0  0  0  0  0  0  0  0  0  0  0  0
    8.6946   -7.9965    0.0000 O   0  0  0  0  0  0  0  0  0  0  0  0
    7.9804   -6.7589    0.0000 C   0  0  0  0  0  0  0  0  0  0  0  0
  1  2  1  0  0  0  0
  1  3  1  1  0  0  0
  1  4  1  0  0  0  0
  2  5  1  0  0  0  0
  2 11  1  6  0  0  0
  4  6  1  0  0  0  0
  4  7  1  6  0  0  0
  5  8  1  0  0  0  0
  5  9  1  1  0  0  0
  6 10  1  1  0  0  0
  6  8  1  0  0  0  0
 11 12  1  0  0  0  0
 12 13  1  0  0  0  0
 12 14  2  0  0  0  0
 10 15  1  0  0  0  0
 16 24  1  6  0  0  0
 17 16  1  0  0  0  0
 17 23  1  1  0  0  0
 18 19  1  0  0  0  0
 18 20  1  0  0  0  0
 20 17  1  0  0  0  0
 20 22  1  6  0  0  0
 21 16  1  0  0  0  0
 19 21  1  0  0  0  0
 21 25  1  1  0  0  0
 25 26  1  0  0  0  0
 18  7  1  1  0  0  0
 28 27  1  0  0  0  0
 29 27  1  0  0  0  0
 29  3  1  1  0  0  0
 29 30  1  0  0  0  0
 30 33  1  1  0  0  0
 30 31  1  0  0  0  0
 31 34  1  6  0  0  0
 31 32  1  0  0  0  0
 32 28  1  0  0  0  0
 32 35  1  6  0  0  0
 28 36  1  6  0  0  0
 38 37  2  0  0  0  0
 39 37  1  0  0  0  0
 22 37  1  0  0  0  0
M  END
> <ID>
CHEBI:62378

> <NAME>
beta-D-GlcpNAc-(1->4)-[alpha-L-Fucp-(1->3)]-beta-D-GlcpNAc

> <DEFINITION>
A branched amino trisaccharide consisting of N-acetyl-β-D-glucosamine having α-L-fucosyl and N-acetyl-β-D-glucosaminyl residues attached at positions 3 and 4 respectively.

> <STAR>
3

> <SYNONYM>
N-acetyl-beta-D-glucosaminyl-(1->4)-[alpha-L-fucosyl-(1->3)]-N-acetyl-beta-D-glucosamine; beta-D-GlcNAc-(1->4)-[alpha-L-Fuc-(1->3)]-beta-D-GlcNAc; 2-acetamido-2-deoxy-beta-D-glucopyranosyl-(1->4)-[6-deoxy-alpha-L-galactopyranosyl-(1->3)]-2-acetamido-2-deoxy-beta-D-glucopyranose

> <IUPAC_NAME>
2-acetamido-2-deoxy-beta-D-glucopyranosyl-(1->4)-[alpha-L-fucopyranosyl-(1->3)]-2-acetamido-2-deoxy-beta-D-glucopyranose

> <FORMULA>
C22H38N2O15

> <MASS>
570.54150

> <MONOISOTOPIC_MASS>
570.22722

> <CHARGE>
0

> <SMILES>
C[C@@H]1O[C@@H](O[C@@H]2[C@@H](NC(C)=O)[C@H](O)O[C@H](CO)[C@H]2O[C@@H]2O[C@H](CO)[C@@H](O)[C@H](O)[C@H]2NC(C)=O)[C@@H](O)[C@H](O)[C@@H]1O

> <INCHI>
InChI=1S/C22H38N2O15/c1-6-13(29)16(32)17(33)22(35-6)39-19-12(24-8(3)28)20(34)36-10(5-26)18(19)38-21-11(23-7(2)27)15(31)14(30)9(4-25)37-21/h6,9-22,25-26,29-34H,4-5H2,1-3H3,(H,23,27)(H,24,28)/t6-,9+,10+,11+,12+,13+,14+,15+,16+,17-,18+,19+,20+,21-,22-/m0/s1

> <INCHIKEY>
UZZNPRAXUPVEEY-QWXFCHLISA-N

> <PUBMED_CITATION>
21237664

$$$$

Marvin  06201111352D          

 49 52  0  0  1  0            999 V2000
   12.0380   -8.0376    0.0000 O   0  0  0  0  0  0  0  0  0  0  0  0
   12.4504   -8.7522    0.0000 C   0  0  2  0  0  0  0  0  0  0  0  0
   12.4505   -7.3231    0.0000 C   0  0  2  0  0  0  0  0  0  0  0  0
   13.2754   -7.3231    0.0000 C   0  0  2  0  0  0  0  0  0  0  0  0
   13.6879   -8.0376    0.0000 C   0  0  1  0  0  0  0  0  0  0  0  0
   13.2754   -8.7521    0.0000 C   0  0  2  0  0  0  0  0  0  0  0  0
   13.6879   -6.6087    0.0000 O   0  0  0  0  0  0  0  0  0  0  0  0
   14.5129   -8.0377    0.0000 O   0  0  0  0  0  0  0  0  0  0  0  0
   13.6880   -9.4666    0.0000 O   0  0  0  0  0  0  0  0  0  0  0  0
   12.0379   -9.4666    0.0000 C   0  0  0  0  0  0  0  0  0  0  0  0
   12.0380   -6.6087    0.0000 O   0  0  0  0  0  0  0  0  0  0  0  0
    8.4657   -7.0213    0.0000 C   0  0  1  0  0  0  0  0  0  0  0  0
    9.1801   -7.4337    0.0000 C   0  0  1  0  0  0  0  0  0  0  0  0
    9.8946   -6.1963    0.0000 C   0  0  2  0  0  0  0  0  0  0  0  0
    9.1801   -5.7838    0.0000 O   0  0  0  0  0  0  0  0  0  0  0  0
    9.8946   -7.0212    0.0000 C   0  0  2  0  0  0  0  0  0  0  0  0
    8.4656   -6.1963    0.0000 C   0  0  2  0  0  0  0  0  0  0  0  0
   10.6091   -7.4337    0.0000 N   0  0  0  0  0  0  0  0  0  0  0  0
    9.1802   -8.2588    0.0000 O   0  0  0  0  0  0  0  0  0  0  0  0
    7.7513   -7.4338    0.0000 O   0  0  0  0  0  0  0  0  0  0  0  0
    7.7512   -5.7838    0.0000 C   0  0  0  0  0  0  0  0  0  0  0  0
    7.0368   -6.1963    0.0000 O   0  0  0  0  0  0  0  0  0  0  0  0
   10.6090   -8.2587    0.0000 C   0  0  0  0  0  0  0  0  0  0  0  0
   11.3235   -8.6713    0.0000 O   0  0  0  0  0  0  0  0  0  0  0  0
    9.8945   -8.6712    0.0000 C   0  0  0  0  0  0  0  0  0  0  0  0
   10.6091   -5.7838    0.0000 O   0  0  0  0  0  0  0  0  0  0  0  0
   12.0380   -5.7838    0.0000 C   0  0  2  0  0  0  0  0  0  0  0  0
   12.7524   -5.3713    0.0000 C   0  0  2  0  0  0  0  0  0  0  0  0
   11.3236   -5.3713    0.0000 C   0  0  1  0  0  0  0  0  0  0  0  0
   12.7524   -4.5463    0.0000 C   0  0  1  0  0  0  0  0  0  0  0  0
   11.3236   -4.5463    0.0000 C   0  0  2  0  0  0  0  0  0  0  0  0
   12.0380   -4.1338    0.0000 O   0  0  0  0  0  0  0  0  0  0  0  0
   13.4669   -4.1338    0.0000 O   0  0  0  0  0  0  0  0  0  0  0  0
   10.6091   -4.1338    0.0000 C   0  0  0  0  0  0  0  0  0  0  0  0
   13.4669   -5.7838    0.0000 N   0  0  0  0  0  0  0  0  0  0  0  0
   14.1814   -5.3713    0.0000 C   0  0  0  0  0  0  0  0  0  0  0  0
   14.8958   -5.7838    0.0000 C   0  0  0  0  0  0  0  0  0  0  0  0
   14.1814   -4.5463    0.0000 O   0  0  0  0  0  0  0  0  0  0  0  0
   10.6091   -3.3088    0.0000 O   0  0  0  0  0  0  0  0  0  0  0  0
    9.8946   -2.0712    0.0000 O   0  0  0  0  0  0  0  0  0  0  0  0
    9.1802   -1.6586    0.0000 C   0  0  2  0  0  0  0  0  0  0  0  0
    9.8946   -2.8963    0.0000 C   0  0  2  0  0  0  0  0  0  0  0  0
    9.1802   -3.3087    0.0000 C   0  0  2  0  0  0  0  0  0  0  0  0
    8.4657   -2.8961    0.0000 C   0  0  1  0  0  0  0  0  0  0  0  0
    8.4657   -2.0712    0.0000 C   0  0  2  0  0  0  0  0  0  0  0  0
    9.1801   -4.1336    0.0000 O   0  0  0  0  0  0  0  0  0  0  0  0
    7.7511   -3.3086    0.0000 O   0  0  0  0  0  0  0  0  0  0  0  0
    7.7512   -1.6587    0.0000 O   0  0  0  0  0  0  0  0  0  0  0  0
    9.1802   -0.8336    0.0000 C   0  0  0  0  0  0  0  0  0  0  0  0
  2  1  1  0  0  0  0
  3  1  1  0  0  0  0
  3  4  1  0  0  0  0
  4  7  1  1  0  0  0
  4  5  1  0  0  0  0
  5  8  1  6  0  0  0
  5  6  1  0  0  0  0
  6  2  1  0  0  0  0
  6  9  1  6  0  0  0
  2 10  1  6  0  0  0
  3 11  1  1  0  0  0
 12 20  1  6  0  0  0
 13 12  1  0  0  0  0
 13 19  1  1  0  0  0
 14 15  1  0  0  0  0
 14 16  1  0  0  0  0
 16 13  1  0  0  0  0
 16 18  1  6  0  0  0
 17 12  1  0  0  0  0
 15 17  1  0  0  0  0
 17 21  1  1  0  0  0
 21 22  1  0  0  0  0
 24 23  2  0  0  0  0
 25 23  1  0  0  0  0
 18 23  1  0  0  0  0
 14 26  1  1  0  0  0
 27 28  1  0  0  0  0
 27 11  1  1  0  0  0
 27 29  1  0  0  0  0
 28 30  1  0  0  0  0
 28 35  1  6  0  0  0
 29 31  1  0  0  0  0
 29 26  1  6  0  0  0
 30 32  1  0  0  0  0
 30 33  1  1  0  0  0
 31 34  1  1  0  0  0
 31 32  1  0  0  0  0
 35 36  1  0  0  0  0
 36 37  1  0  0  0  0
 36 38  2  0  0  0  0
 34 39  1  0  0  0  0
 41 40  1  0  0  0  0
 42 40  1  0  0  0  0
 42 43  1  0  0  0  0
 43 46  1  1  0  0  0
 43 44  1  0  0  0  0
 44 47  1  6  0  0  0
 44 45  1  0  0  0  0
 45 41  1  0  0  0  0
 45 48  1  6  0  0  0
 41 49  1  6  0  0  0
 42 39  1  1  0  0  0
M  END
> <ID>
CHEBI:62379

> <NAME>
beta-D-GlcpNAc-(1->4)-[alpha-L-Fucp-(1->3)]-[alpha-L-Fucp-(1->6)]-beta-D-GlcpNAc

> <DEFINITION>
A branched amino tetrasaccharide consisting of N-acetyl-β-D-glucosamine having two α-L-fucosyl residues at the 3- and 6-positions as well as an N-acetyl-β-D-glucosaminyl residue at the 4-position.

> <STAR>
3

> <SYNONYM>
N-acetyl-beta-D-glucosaminyl-(1->4)-[alpha-L-fucosyl-(1->3)]-[alpha-L-fucosyl-(1->6)]-N-acetyl-beta-D-glucosamine; beta-D-GlcNAc-(1->4)-[alpha-L-Fuc-(1->3)]-[alpha-L-Fuc-(1->6)]-beta-D-GlcNAc; 2-acetamido-2-deoxy-beta-D-glucopyranosyl-(1->4)-[6-deoxy-alpha-L-galactopyranosyl-(1->3)]-[6-deoxy-alpha-L-galactopyranosyl-(1->6)]-2-acetamido-2-deoxy-beta-D-glucopyranose

> <IUPAC_NAME>
2-acetamido-2-deoxy-beta-D-glucopyranosyl-(1->4)-[alpha-L-fucopyranosyl-(1->3)]-[alpha-L-fucopyranosyl-(1->6)]-2-acetamido-2-deoxy-beta-D-glucopyranose

> <FORMULA>
C28H48N2O19

> <MASS>
716.68270

> <MONOISOTOPIC_MASS>
716.28513

> <CHARGE>
0

> <SMILES>
C[C@@H]1O[C@@H](OC[C@H]2O[C@@H](O)[C@H](NC(C)=O)[C@@H](O[C@@H]3O[C@@H](C)[C@@H](O)[C@@H](O)[C@@H]3O)[C@@H]2O[C@@H]2O[C@H](CO)[C@@H](O)[C@H](O)[C@H]2NC(C)=O)[C@@H](O)[C@H](O)[C@@H]1O

> <INCHI>
InChI=1S/C28H48N2O19/c1-7-15(34)19(38)21(40)27(44-7)43-6-12-23(48-26-13(29-9(3)32)18(37)17(36)11(5-31)47-26)24(14(25(42)46-12)30-10(4)33)49-28-22(41)20(39)16(35)8(2)45-28/h7-8,11-28,31,34-42H,5-6H2,1-4H3,(H,29,32)(H,30,33)/t7-,8-,11+,12+,13+,14+,15+,16+,17+,18+,19+,20+,21-,22-,23+,24+,25+,26-,27+,28-/m0/s1

> <INCHIKEY>
KYHABCDOVOBVOI-TWESURAMSA-N

> <PUBMED_CITATION>
21237664

$$$$

Marvin  08011116002D          

 29 29  0  0  1  0            999 V2000
   16.3204   -1.4311    0.0000 C   0  0  1  0  0  0  0  0  0  0  0  0
   16.3204   -2.2561    0.0000 C   0  0  0  0  0  0  0  0  0  0  0  0
   15.6059   -1.0186    0.0000 N   0  0  0  0  0  0  0  0  0  0  0  0
   14.8915   -1.4311    0.0000 C   0  0  0  0  0  0  0  0  0  0  0  0
   14.8915   -2.2561    0.0000 O   0  0  0  0  0  0  0  0  0  0  0  0
   14.1770   -1.0186    0.0000 C   0  0  0  0  0  0  0  0  0  0  0  0
   14.1770   -0.1936    0.0000 N   0  0  0  0  0  0  0  0  0  0  0  0
   12.6779   -2.5110    0.0000 S   0  0  0  0  0  0  0  0  0  0  0  0
   13.4625   -2.2561    0.0000 C   0  0  0  0  0  0  0  0  0  0  0  0
   13.4625   -1.4311    0.0000 C   0  0  0  0  0  0  0  0  0  0  0  0
   12.6779   -1.1762    0.0000 N   0  0  0  0  0  0  0  0  0  0  0  0
   12.1930   -1.8436    0.0000 C   0  0  0  0  0  0  0  0  0  0  0  0
   14.8915    0.2189    0.0000 O   0  0  0  0  0  0  0  0  0  0  0  0
   14.8915    1.0439    0.0000 C   0  0  0  0  0  0  0  0  0  0  0  0
   15.6059    1.4564    0.0000 C   0  0  0  0  0  0  0  0  0  0  0  0
   15.6059    2.2814    0.0000 O   0  0  0  0  0  0  0  0  0  0  0  0
   16.3204    1.0439    0.0000 O   0  0  0  0  0  0  0  0  0  0  0  0
   14.4790    1.7583    0.0000 C   0  0  0  0  0  0  0  0  0  0  0  0
   14.0946    0.8304    0.0000 C   0  0  0  0  0  0  0  0  0  0  0  0
   11.3680   -1.8436    0.0000 N   0  0  0  0  0  0  0  0  0  0  0  0
   17.0349   -2.6686    0.0000 O   0  0  0  0  0  0  0  0  0  0  0  0
   15.6059   -2.6686    0.0000 O   0  0  0  0  0  0  0  0  0  0  0  0
   17.0349   -1.0186    0.0000 C   0  0  2  0  0  0  0  0  0  0  0  0
   17.0349   -0.1936    0.0000 C   0  0  0  0  0  0  0  0  0  0  0  0
   18.4638   -1.0186    0.0000 S   0  0  0  0  0  0  0  0  0  0  0  0
   19.1783   -1.4311    0.0000 O   0  0  0  0  0  0  0  0  0  0  0  0
   18.0514   -0.3041    0.0000 O   0  0  0  0  0  0  0  0  0  0  0  0
   18.8763   -0.3041    0.0000 O   0  0  0  0  0  0  0  0  0  0  0  0
   17.7494   -1.4311    0.0000 N   0  0  0  0  0  0  0  0  0  0  0  0
  1  2  1  0  0  0  0
  1  3  1  1  0  0  0
  3  4  1  0  0  0  0
  4  5  2  0  0  0  0
  4  6  1  0  0  0  0
  6 10  1  0  0  0  0
  6  7  2  0  0  0  0
  8  9  1  0  0  0  0
  8 12  1  0  0  0  0
  9 10  2  0  0  0  0
 10 11  1  0  0  0  0
 11 12  2  0  0  0  0
  7 13  1  0  0  0  0
 13 14  1  0  0  0  0
 14 15  1  0  0  0  0
 15 16  2  0  0  0  0
 15 17  1  0  0  0  0
 14 18  1  0  0  0  0
 14 19  1  0  0  0  0
 12 20  1  0  0  0  0
  2 21  1  0  0  0  0
  2 22  2  0  0  0  0
  1 23  1  0  0  0  0
 23 24  1  6  0  0  0
 25 26  1  0  0  0  0
 25 27  2  0  0  0  0
 28 25  2  0  0  0  0
 23 29  1  0  0  0  0
 29 25  1  0  0  0  0
M  END
> <ID>
CHEBI:62665

> <NAME>
SQ 26,992

> <DEFINITION>
A 1,3-thiazole that is obtained via biohydrolysis of the β-lactam ring of aztreonam.

> <STAR>
3

> <SYNONYM>
SQ 26992

> <IUPAC_NAME>
(2S,3S)-2-{[(2Z)-2-(2-amino-1,3-thiazol-4-yl)-2-{[(2-carboxypropan-2-yl)oxy]imino}acetyl]amino}-3-(sulfoamino)butanoic acid

> <FORMULA>
C13H19N5O9S2

> <MASS>
453.44800

> <MONOISOTOPIC_MASS>
453.06242

> <CHARGE>
0

> <SMILES>
C[C@H](NS(O)(=O)=O)[C@H](NC(=O)C(=N/OC(C)(C)C(O)=O)\c1csc(N)n1)C(O)=O

> <INCHI>
InChI=1S/C13H19N5O9S2/c1-5(18-29(24,25)26)7(10(20)21)16-9(19)8(6-4-28-12(14)15-6)17-27-13(2,3)11(22)23/h4-5,7,18H,1-3H3,(H2,14,15)(H,16,19)(H,20,21)(H,22,23)(H,24,25,26)/b17-8-/t5-,7-/m0/s1

> <INCHIKEY>
IBLNMEMSULYOOK-VEHQQRBSSA-N

> <CAS_REGISTRY_NUMBER>
87500-74-1

> <REAXYS_REGISTRY_NUMBER>
6165935

> <CHEMIDPLUS>
87500-74-1

> <PUBMED_CITATION>
1991925

$$$$

Marvin  08301112182D          

 11 11  0  0  0  0            999 V2000
   11.5687   -4.7164    0.0000 C   0  0  0  0  0  0  0  0  0  0  0  0
   11.5687   -5.5414    0.0000 C   0  0  0  0  0  0  0  0  0  0  0  0
   10.8542   -4.3039    0.0000 C   0  0  0  0  0  0  0  0  0  0  0  0
   10.8542   -5.9539    0.0000 C   0  0  0  0  0  0  0  0  0  0  0  0
   10.1397   -4.7164    0.0000 C   0  0  0  0  0  0  0  0  0  0  0  0
   10.1397   -5.5414    0.0000 C   0  0  0  0  0  0  0  0  0  0  0  0
   12.2832   -4.3039    0.0000 C   0  0  0  0  0  0  0  0  0  0  0  0
   12.9977   -4.7164    0.0000 Br  0  0  0  0  0  0  0  0  0  0  0  0
    9.4252   -5.9539    0.0000 N   0  3  0  0  0  0  0  0  0  0  0  0
    8.7108   -5.5414    0.0000 O   0  5  0  0  0  0  0  0  0  0  0  0
    9.4252   -6.7789    0.0000 O   0  0  0  0  0  0  0  0  0  0  0  0
  2  1  1  0  0  0  0
  3  1  2  0  0  0  0
  4  2  2  0  0  0  0
  5  3  1  0  0  0  0
  6  4  1  0  0  0  0
  6  5  2  0  0  0  0
  1  7  1  0  0  0  0
  7  8  1  0  0  0  0
 10  9  1  0  0  0  0
 11  9  2  0  0  0  0
  6  9  1  0  0  0  0
M  CHG  2   9   1  10  -1
M  END
> <ID>
CHEBI:62822

> <NAME>
4-nitrobenzyl bromide

> <DEFINITION>
A C-nitro compound that consists of nitrobenzene bearing a bromomethyl substituent at the para-position.

> <STAR>
3

> <SYNONYM>
p-Nitrobenzyl bromide; p-(Bromomethyl)nitrobenzene; Nitrobenzyl bromide; alpha-Bromoparanitrotoluene; alpha-Bromo-p-nitrotoluene; alpha-Bromo-4-nitrotoluene; 4-(Bromomethyl)nitrobenzene

> <IUPAC_NAME>
1-(bromomethyl)-4-nitrobenzene

> <FORMULA>
C7H6BrNO2

> <MASS>
216.03200

> <MONOISOTOPIC_MASS>
214.95819

> <CHARGE>
0

> <SMILES>
[O-][N+](=O)c1ccc(CBr)cc1

> <INCHI>
InChI=1S/C7H6BrNO2/c8-5-6-1-3-7(4-2-6)9(10)11/h1-4H,5H2

> <INCHIKEY>
VOLRSQPSJGXRNJ-UHFFFAOYSA-N

> <CAS_REGISTRY_NUMBER>
100-11-8

> <REAXYS_REGISTRY_NUMBER>
742796

> <CHEMIDPLUS>
100-11-8

> <NIST_CHEMISTRY_WEBBOOK>
100-11-8

> <PUBMED_CITATION>
14505719; 19739607; 19928804; 20092329; 20940038; 2282796; 29079364; 6530466; 7190617; 9565311

$$$$

Marvin  08301113562D          

 10  9  0  0  0  0            999 V2000
   13.9692   -3.7973    0.0000 C   0  0  0  0  0  0  0  0  0  0  0  0
   14.6829   -4.2112    0.0000 C   0  0  0  0  0  0  0  0  0  0  0  0
   15.3965   -3.7973    0.0000 C   0  0  0  0  0  0  0  0  0  0  0  0
   16.1101   -4.2112    0.0000 C   0  0  0  0  0  0  0  0  0  0  0  0
   16.8238   -3.7973    0.0000 C   0  0  0  0  0  0  0  0  0  0  0  0
   13.2556   -3.3977    0.0000 N   0  0  0  0  0  0  0  0  0  0  0  0
   17.5374   -3.3834    0.0000 N   0  0  0  0  0  0  0  0  0  0  0  0
   14.0995   -4.7946    0.0000 Br  0  0  0  0  0  0  0  0  0  0  0  0
   15.2662   -4.7946    0.0000 C   0  0  0  0  0  0  0  0  0  0  0  0
   15.0527   -5.5915    0.0000 Br  0  0  0  0  0  0  0  0  0  0  0  0
  2  1  1  0  0  0  0
  6  1  3  0  0  0  0
  3  2  1  0  0  0  0
  4  3  1  0  0  0  0
  5  4  1  0  0  0  0
  7  5  3  0  0  0  0
  2  8  1  0  0  0  0
  2  9  1  0  0  0  0
  9 10  1  0  0  0  0
M  END
> <ID>
CHEBI:62823

> <NAME>
2-bromo-2-(bromomethyl)pentanedinitrile

> <DEFINITION>
An organobromine compound that consists of pentanedinitrile bearing bromo and bromomethyl substituents at position 2.

> <STAR>
3

> <SYNONYM>
Methyldibromoglutaronitrile; Methyldibromo glutaronitrile; MDGN; Bromothalonil; 2-Bromo-2-bromomethylglutaronitrile; 2-Bromo-2-(bromomethyl)glutaronitrile; 1-Bromo-1-(bromomethyl)-1,3-propanedicarbonitrile; 1,2-Dibromo-2,4-dicyanobutane

> <IUPAC_NAME>
2-bromo-2-(bromomethyl)pentanedinitrile

> <FORMULA>
C6H6Br2N2

> <MASS>
265.93300

> <MONOISOTOPIC_MASS>
263.88977

> <CHARGE>
0

> <SMILES>
BrCC(Br)(CCC#N)C#N

> <INCHI>
InChI=1S/C6H6Br2N2/c7-4-6(8,5-10)2-1-3-9/h1-2,4H2

> <INCHIKEY>
DHVLDKHFGIVEIP-UHFFFAOYSA-N

> <CAS_REGISTRY_NUMBER>
35691-65-7

> <REAXYS_REGISTRY_NUMBER>
1930600

> <CHEMIDPLUS>
35691-65-7

> <WIKIPEDIA_ACCESSION>
Methyldibromo_glutaronitrile

> <PUBMED_CITATION>
19321115; 19426617; 19457305; 19470301; 19883218; 20233547; 20940038; 21144344; 21317857; 21325848; 21332463; 21569742; 21616561; 29079364

$$$$

Marvin  01101217302D          

 23 24  0  0  0  0            999 V2000
   10.4403  -12.4936    0.0000 C   0  0  0  0  0  0  0  0  0  0  0  0
   10.4403  -13.3185    0.0000 C   0  0  0  0  0  0  0  0  0  0  0  0
    9.7258  -12.0811    0.0000 C   0  0  0  0  0  0  0  0  0  0  0  0
    9.7258  -13.7310    0.0000 C   0  0  0  0  0  0  0  0  0  0  0  0
    9.0114  -12.4936    0.0000 C   0  0  0  0  0  0  0  0  0  0  0  0
    9.0114  -13.3185    0.0000 C   0  0  0  0  0  0  0  0  0  0  0  0
   11.1547  -12.0811    0.0000 N   0  0  0  0  0  0  0  0  0  0  0  0
   11.8692  -12.4936    0.0000 N   0  0  0  0  0  0  0  0  0  0  0  0
   12.5837  -12.0811    0.0000 C   0  0  0  0  0  0  0  0  0  0  0  0
   12.5837  -11.2561    0.0000 C   0  0  0  0  0  0  0  0  0  0  0  0
   13.2982  -12.4936    0.0000 C   0  0  0  0  0  0  0  0  0  0  0  0
   13.2982  -10.8436    0.0000 C   0  0  0  0  0  0  0  0  0  0  0  0
   14.0127  -12.0811    0.0000 C   0  0  0  0  0  0  0  0  0  0  0  0
   14.0127  -11.2561    0.0000 C   0  0  0  0  0  0  0  0  0  0  0  0
   14.7271  -10.8436    0.0000 N   0  0  0  0  0  0  0  0  0  0  0  0
   15.4415  -11.2561    0.0000 C   0  0  0  0  0  0  0  0  0  0  0  0
   14.7270  -10.0186    0.0000 C   0  0  0  0  0  0  0  0  0  0  0  0
   15.4415  -12.0811    0.0000 C   0  0  0  0  0  0  0  0  0  0  0  0
   15.4415   -9.6061    0.0000 C   0  0  0  0  0  0  0  0  0  0  0  0
   16.1560  -12.4936    0.0000 O   0  0  0  0  0  0  0  0  0  0  0  0
    8.2969  -13.7310    0.0000 N   0  3  0  0  0  0  0  0  0  0  0  0
    7.5824  -13.3185    0.0000 O   0  5  0  0  0  0  0  0  0  0  0  0
    8.2968  -14.5560    0.0000 O   0  0  0  0  0  0  0  0  0  0  0  0
  2  1  1  0  0  0  0
  3  1  2  0  0  0  0
  4  2  2  0  0  0  0
  5  3  1  0  0  0  0
  6  4  1  0  0  0  0
  6  5  2  0  0  0  0
  1  7  1  0  0  0  0
  7  8  2  0  0  0  0
 10  9  1  0  0  0  0
 11  9  2  0  0  0  0
 12 10  2  0  0  0  0
 13 11  1  0  0  0  0
 14 12  1  0  0  0  0
 14 13  2  0  0  0  0
  8  9  1  0  0  0  0
 14 15  1  0  0  0  0
 15 16  1  0  0  0  0
 15 17  1  0  0  0  0
 16 18  1  0  0  0  0
 17 19  1  0  0  0  0
 18 20  1  0  0  0  0
  6 21  1  0  0  0  0
 21 22  1  0  0  0  0
 21 23  2  0  0  0  0
M  CHG  2  21   1  22  -1
M  END
> <ID>
CHEBI:63557

> <NAME>
Disperse Red 1

> <DEFINITION>
An azo dye with a structure consisting of nitrobenzene substituted on the 4-position of the phenyl group with a 4-[N-ethyl-N-(2-hydroxyethyl)]phenylazo group.

> <STAR>
3

> <SYNONYM>
trans-4-[N-ethyl-N-(2-hydroxyethyl)amino]-4'-nitroazobenzene; Dispersol Scarlet B; Dispersol Fast Scarlet B; Dispersive Ruby Zh; Disperse Scarlet Zh; Disperse Scarlet B; Disperse Red Zh; Acetoquinone Light Scarlet BLZ; Acetate Fast Scarlet B; Acetamine Scarlet B; 4-Nitro-4'-(ethyl(2-hydroxyethyl)amino)azobenzene; 4-[N-ethyl-N-(beta-hydroxyethyl)]amino-4'-nitroazobenzene; 4-[N-(2-hydroxyethyl)-N-ethylamino]-4'-nitroazobenzene; 4-[ethyl(2-hydroxyethyl)amino]-4'-nitroazobenzene; 2-[N-ethyl-4-(4-nitrophenylazo)phenyl-amino]ethanol; 2-(Ethyl(4-((4-nitrophenyl)azo)phenyl)amino)ethanol

> <IUPAC_NAME>
2-(ethyl{4-[(E)-(4-nitrophenyl)diazenyl]phenyl}amino)ethanol

> <FORMULA>
C16H18N4O3

> <MASS>
314.33910

> <MONOISOTOPIC_MASS>
314.13789

> <CHARGE>
0

> <SMILES>
CCN(CCO)c1ccc(cc1)\N=N\c1ccc(cc1)[N+]([O-])=O

> <INCHI>
InChI=1S/C16H18N4O3/c1-2-19(11-12-21)15-7-3-13(4-8-15)17-18-14-5-9-16(10-6-14)20(22)23/h3-10,21H,2,11-12H2,1H3/b18-17+

> <INCHIKEY>
FOQABOMYTOFLPZ-ISLYRVAYSA-N

> <CAS_REGISTRY_NUMBER>
2872-52-8

> <REAXYS_REGISTRY_NUMBER>
5353614

> <CHEMIDPLUS>
2872-52-8

> <PUBMED_CITATION>
21616561

$$$$

Marvin  01121213452D          

 17 18  0  0  0  0            999 V2000
   11.5386   -7.3834    0.0000 N   0  0  0  0  0  0  0  0  0  0  0  0
   14.3829   -5.7103    0.0000 N   0  0  0  0  0  0  0  0  0  0  0  0
   13.6718   -6.1286    0.0000 C   0  0  0  0  0  0  0  0  0  0  0  0
   12.9503   -5.7155    0.0000 C   0  0  0  0  0  0  0  0  0  0  0  0
   12.2392   -6.1338    0.0000 C   0  0  0  0  0  0  0  0  0  0  0  0
   12.2497   -6.9651    0.0000 C   0  0  0  0  0  0  0  0  0  0  0  0
   12.9607   -7.3604    0.0000 C   0  0  0  0  0  0  0  0  0  0  0  0
   13.6718   -6.9421    0.0000 C   0  0  0  0  0  0  0  0  0  0  0  0
   15.0939   -6.1056    0.0000 C   0  0  0  0  0  0  0  0  0  0  0  0
   15.8050   -5.6873    0.0000 C   0  0  0  0  0  0  0  0  0  0  0  0
   15.1044   -6.9369    0.0000 C   0  0  0  0  0  0  0  0  0  0  0  0
   10.0956   -5.7438    0.0000 C   0  0  0  0  0  0  0  0  0  0  0  0
    9.3741   -6.1442    0.0000 C   0  0  0  0  0  0  0  0  0  0  0  0
    9.3845   -6.9756    0.0000 C   0  0  0  0  0  0  0  0  0  0  0  0
   10.0956   -7.3708    0.0000 C   0  0  0  0  0  0  0  0  0  0  0  0
   10.8171   -6.9704    0.0000 C   0  0  0  0  0  0  0  0  0  0  0  0
   10.8067   -6.1390    0.0000 C   0  0  0  0  0  0  0  0  0  0  0  0
  6  1  1  0  0  0  0
 16  1  1  0  0  0  0
  3  2  1  0  0  0  0
  9  2  1  0  0  0  0
  8  3  2  0  0  0  0
  4  3  1  0  0  0  0
  5  4  2  0  0  0  0
  6  5  1  0  0  0  0
  7  6  2  0  0  0  0
  8  7  1  0  0  0  0
 10  9  1  0  0  0  0
 11  9  1  0  0  0  0
 17 12  2  0  0  0  0
 13 12  1  0  0  0  0
 14 13  2  0  0  0  0
 15 14  1  0  0  0  0
 16 15  2  0  0  0  0
 17 16  1  0  0  0  0
M  END
> <ID>
CHEBI:63569

> <NAME>
N-isopropyl-N'-phenyl-p-phenylenediamine

> <DEFINITION>
The N-substituted diamine that is 1,4-phenylenediamine substituted at one N with an isopropyl group and at the other with a phenyl group.

> <STAR>
3

> <SYNONYM>
N-isopropyl-N'-phenyl-1,4-phenylenediamine; N-(1-methylethyl)-N'-phenyl-1,4-benzenediamine; IPPD; 4-Anilino-N-isopropylaniline; 4-(Isopropylamino)diphenylamine; -Isopropylaminodiphenylamine

> <IUPAC_NAME>
N-isopropyl-N'-phenylbenzene-1,4-diamine

> <FORMULA>
C15H18N2

> <MASS>
226.31680

> <MONOISOTOPIC_MASS>
226.14700

> <CHARGE>
0

> <SMILES>
CC(C)Nc1ccc(Nc2ccccc2)cc1

> <INCHI>
InChI=1S/C15H18N2/c1-12(2)16-14-8-10-15(11-9-14)17-13-6-4-3-5-7-13/h3-12,16-17H,1-2H3

> <INCHIKEY>
OUBMGJOQLXMSNT-UHFFFAOYSA-N

> <CAS_REGISTRY_NUMBER>
101-72-4

> <REAXYS_REGISTRY_NUMBER>
2213195

> <CHEMIDPLUS>
101-72-4

> <NIST_CHEMISTRY_WEBBOOK>
101-72-4

> <PUBMED_CITATION>
19338586; 21616561; 7204095; 8156758; 8384542; 8462307

$$$$

Marvin  01161211492D          

 15 16  0  0  1  0            999 V2000
    8.9908   -5.2963    0.0000 N   0  0  0  0  0  0  0  0  0  0  0  0
    9.7052   -4.8838    0.0000 C   0  0  0  0  0  0  0  0  0  0  0  0
    8.2762   -4.8838    0.0000 C   0  0  0  0  0  0  0  0  0  0  0  0
    9.7052   -4.0588    0.0000 N   0  0  0  0  0  0  0  0  0  0  0  0
    8.9908   -3.6463    0.0000 C   0  0  0  0  0  0  0  0  0  0  0  0
    8.2762   -4.0588    0.0000 C   0  0  0  0  0  0  0  0  0  0  0  0
    8.9908   -6.1213    0.0000 C   0  0  1  0  0  0  0  0  0  0  0  0
    8.3233   -6.6062    0.0000 O   0  0  0  0  0  0  0  0  0  0  0  0
    9.6581   -6.6062    0.0000 C   0  0  0  0  0  0  0  0  0  0  0  0
    8.5783   -7.3908    0.0000 C   0  0  2  0  0  0  0  0  0  0  0  0
    9.4033   -7.3908    0.0000 S   0  0  0  0  0  0  0  0  0  0  0  0
   10.4196   -5.2963    0.0000 O   0  0  0  0  0  0  0  0  0  0  0  0
    8.9908   -2.8213    0.0000 N   0  0  0  0  0  0  0  0  0  0  0  0
    8.0934   -8.0583    0.0000 C   0  0  0  0  0  0  0  0  0  0  0  0
    8.4288   -8.8120    0.0000 O   0  0  0  0  0  0  0  0  0  0  0  0
  7  1  1  6  0  0  0
  1  2  1  0  0  0  0
  2 12  2  0  0  0  0
  1  3  1  0  0  0  0
  2  4  1  0  0  0  0
  4  5  2  0  0  0  0
  5 13  1  0  0  0  0
  3  6  2  0  0  0  0
  6  5  1  0  0  0  0
  7  8  1  0  0  0  0
  7  9  1  0  0  0  0
  8 10  1  0  0  0  0
  9 11  1  0  0  0  0
 10 14  1  6  0  0  0
 10 11  1  0  0  0  0
 14 15  1  0  0  0  0
M  END
> <ID>
CHEBI:63577

> <NAME>
lamivudine

> <DEFINITION>
A monothioacetal that consists of cytosine having a (2R,5S)-2-(hydroxymethyl)-1,3-oxathiolan-5-yl moiety attached at position 1. An inhibitor of HIV-1 reverse transcriptase, it is used as an antiviral in the treatment of AIDS and hepatitis B.

> <STAR>
3

> <SECONDARY_ID>
CHEBI:6366

> <SYNONYM>
Lamivudine; beta-L-3'-Thia-2',3'-dideoxycytidine; beta-L-2',3'-Dideoxy-3'-thiacytidine; 3TC; 3'-Thia-2',3'-dideoxycytidine; 2',3'-Dideoxy-3'-thiacytidine; (-)-2'-Deoxy-3'-thiacytidine; (-)-1-((2R,5S)-2-(Hydroxymethyl)-1,3-oxathiolan-5-yl)cytosine

> <IUPAC_NAME>
4-amino-1-[(2R,5S)-2-(hydroxymethyl)-1,3-oxathiolan-5-yl]pyrimidin-2(1H)-one

> <INN>
lamivudine

> <BRAND_NAME>
Epivir

> <FORMULA>
C8H11N3O3S

> <MASS>
229.25600

> <MONOISOTOPIC_MASS>
229.05211

> <CHARGE>
0

> <SMILES>
Nc1ccn([C@@H]2CS[C@H](CO)O2)c(=O)n1

> <INCHI>
InChI=1S/C8H11N3O3S/c9-5-1-2-11(8(13)10-5)6-4-15-7(3-12)14-6/h1-2,6-7,12H,3-4H2,(H2,9,10,13)/t6-,7+/m0/s1

> <INCHIKEY>
JTEGQNOMFQHVDC-NKWVEPMBSA-N

> <CAS_REGISTRY_NUMBER>
134678-17-4

> <REAXYS_REGISTRY_NUMBER>
5480511

> <CHEMIDPLUS>
134678-17-4

> <DRUGBANK_ACCESSION>
DB00709

> <KEGG_COMPOUND_ACCESSION>
C07065

> <KEGG_DRUG_ACCESSION>
D00353

> <LINCS_ACCESSION>
LSM-5215

> <PDBECHEM_ACCESSION>
3TC

> <WIKIPEDIA_ACCESSION>
Lamivudine

> <PUBMED_CITATION>
12135009; 19783232; 21465499; 21721935; 21851334; 22001270; 22028068; 22078148; 22085635; 22097898; 22098177; 22170540; 22211086; 22222724; 22226087; 22231575; 22233654; 25017682; 28166217; 29438107

$$$$

Marvin  10260716372D          

 17 17  0  0  0  0            999 V2000
   -3.3750    1.4188    0.0000 C   0  0  0  0  0  0  0  0  0  0  0  0
   -4.0895    1.0063    0.0000 C   0  0  0  0  0  0  0  0  0  0  0  0
   -4.0895    0.1812    0.0000 C   0  0  0  0  0  0  0  0  0  0  0  0
   -2.6605    1.0063    0.0000 C   0  0  0  0  0  0  0  0  0  0  0  0
   -1.9461    1.4188    0.0000 C   0  0  0  0  0  0  0  0  0  0  0  0
   -3.3750   -0.2313    0.0000 C   0  0  0  0  0  0  0  0  0  0  0  0
   -3.3750   -1.0563    0.0000 C   0  0  0  0  0  0  0  0  0  0  0  0
   -2.6605    0.1812    0.0000 C   0  0  0  0  0  0  0  0  0  0  0  0
   -1.9461   -0.2313    0.0000 N   0  0  0  0  0  0  0  0  0  0  0  0
   -1.2316    0.1812    0.0000 C   0  0  0  0  0  0  0  0  0  0  0  0
   -1.2316    1.0062    0.0000 O   0  0  0  0  0  0  0  0  0  0  0  0
   -0.5171   -0.2313    0.0000 C   0  0  0  0  0  0  0  0  0  0  0  0
    0.1973    1.0062    0.0000 C   0  0  0  0  0  0  0  0  0  0  0  0
    0.9118    1.4187    0.0000 C   0  0  0  0  0  0  0  0  0  0  0  0
    0.1973    0.1812    0.0000 N   0  0  0  0  0  0  0  0  0  0  0  0
    0.9118   -0.2313    0.0000 C   0  0  0  0  0  0  0  0  0  0  0  0
    1.6263    0.1812    0.0000 C   0  0  0  0  0  0  0  0  0  0  0  0
  1  2  1  0  0  0  0
  1  4  2  0  0  0  0
  2  3  2  0  0  0  0
  3  6  1  0  0  0  0
  6  8  2  0  0  0  0
  8  4  1  0  0  0  0
  4  5  1  0  0  0  0
  6  7  1  0  0  0  0
  8  9  1  0  0  0  0
  9 10  1  0  0  0  0
 10 12  1  0  0  0  0
 10 11  2  0  0  0  0
 12 15  1  0  0  0  0
 15 13  1  0  0  0  0
 13 14  1  0  0  0  0
 15 16  1  0  0  0  0
 16 17  1  0  0  0  0
M  END
> <ID>
CHEBI:6456

> <NAME>
lidocaine

> <DEFINITION>
The monocarboxylic acid amide resulting from the formal condensation of N,N-diethylglycine with 2,6-dimethylaniline.

> <STAR>
3

> <SYNONYM>
Lidocaine; alpha-diethylamino-2,6-dimethylacetanilide; 2-(Diethylamino)-N-(2,6-dimethylphenyl)acetamide; 2-(Diethylamino)-2',6'-acetoxylidide

> <IUPAC_NAME>
N-(2,6-dimethylphenyl)-N(2),N(2)-diethylglycinamide

> <BRAND_NAME>
Lidoderm

> <FORMULA>
C14H22N2O

> <MASS>
234.33736

> <MONOISOTOPIC_MASS>
234.17321

> <CHARGE>
0

> <SMILES>
CCN(CC)CC(=O)Nc1c(C)cccc1C

> <INCHI>
InChI=1S/C14H22N2O/c1-5-16(6-2)10-13(17)15-14-11(3)8-7-9-12(14)4/h7-9H,5-6,10H2,1-4H3,(H,15,17)

> <INCHIKEY>
NNJVILVZKWQKPM-UHFFFAOYSA-N

> <BEILSTEIN_REGISTRY_NUMBER>
2215784

> <CAS_REGISTRY_NUMBER>
137-58-6

> <REAXYS_REGISTRY_NUMBER>
2215784

> <CHEMIDPLUS>
137-58-6

> <DRUGBANK_ACCESSION>
DB00281

> <HMDB_ACCESSION>
HMDB0014426

> <KEGG_COMPOUND_ACCESSION>
C07073

> <KEGG_DRUG_ACCESSION>
D00358

> <LINCS_ACCESSION>
LSM-3165

> <NIST_CHEMISTRY_WEBBOOK>
137-58-6

> <WIKIPEDIA_ACCESSION>
Lidocaine

> <PUBMED_CITATION>
11106996; 11120381; 11431418; 11692349; 15056998; 16668583; 17214917; 18940244

$$$$

Marvin  06201210592D          

 15 16  0  0  1  0            999 V2000
    7.6452  -11.7093    0.0000 N   0  0  0  0  0  0  0  0  0  0  0  0
    7.6452  -10.8841    0.0000 C   0  0  2  0  0  0  0  0  0  0  0  0
    8.3566  -12.1367    0.0000 C   0  0  0  0  0  0  0  0  0  0  0  0
    6.8202  -11.7093    0.0000 C   0  0  0  0  0  0  0  0  0  0  0  0
    8.3566  -10.4718    0.0000 S   0  0  0  0  0  0  0  0  0  0  0  0
    9.0795  -11.7166    0.0000 C   0  0  0  0  0  0  0  0  0  0  0  0
    8.3490  -12.9617    0.0000 C   0  0  0  0  0  0  0  0  0  0  0  0
    6.2375  -12.2881    0.0000 O   0  0  0  0  0  0  0  0  0  0  0  0
    9.0795  -10.8841    0.0000 C   0  0  0  0  0  0  0  0  0  0  0  0
    9.7908  -12.1254    0.0000 C   0  0  0  0  0  0  0  0  0  0  0  0
    7.6339  -13.3628    0.0000 O   0  0  0  0  0  0  0  0  0  0  0  0
    9.0605  -13.3742    0.0000 O   0  0  0  0  0  0  0  0  0  0  0  0
    7.6452  -10.0629    0.0000 H   0  0  0  0  0  0  0  0  0  0  0  0
    6.8202  -10.8841    0.0000 C   0  0  1  0  0  0  0  0  0  0  0  0
    6.2369  -10.3008    0.0000 N   0  0  0  0  0  0  0  0  0  0  0  0
  1  2  1  0  0  0  0
  1  3  1  0  0  0  0
  1  4  1  0  0  0  0
  2 14  1  0  0  0  0
  2  5  1  0  0  0  0
  3  6  2  0  0  0  0
  3  7  1  0  0  0  0
  4  8  2  0  0  0  0
  5  9  1  0  0  0  0
  6 10  1  0  0  0  0
  7 11  1  0  0  0  0
  7 12  2  0  0  0  0
  4 14  1  0  0  0  0
  6  9  1  0  0  0  0
  2 13  1  6  0  0  0
 14 15  1  1  0  0  0
M  END
> <ID>
CHEBI:64984

> <NAME>
7beta-aminodeacetoxycephalosporanic acid

> <DEFINITION>
A cephem monocarboxylic acid derivative having a structure based on cephalosporanic acid, deacetoxylated and carrying a 7β-amino group.

> <STAR>
3

> <SYNONYM>
7beta-aminodeacetoxycephalosporanic acid; 7beta-amino-3-methylceph-3-em-4-carboxylic acid; 7beta-amino-3-methyl-Delta(3)-cephem-4-carboxylic acid; 7beta-amino-3-methyl-3-cephem-4-carboxylic acid; 7-Aminodesacetoxycephalosporanic acid; 7-aminodeacetoxycephalosporanic acid; 7-amino-3-methylceph-3-em-4-carboxylic acid; 7-amino-3-methyl-Delta(3)-cephem-4-carboxylic acid; 7-amino-3-methyl-3-cephem-4-carboxylic acid; 7-ADCA; 3-methyl-7beta-aminoceph-3-em-4-carboxylic acid; 3-methyl-7beta-amino-Delta(3)-cephem-4-carboxylic acid; 3-methyl-7-aminoceph-3-em-4-carboxylic acid; 3-methyl-7-amino-Delta(3)-cephem-4-carboxylic acid

> <IUPAC_NAME>
(6R,7R)-7-amino-3-methyl-8-oxo-5-thia-1-azabicyclo[4.2.0]oct-2-ene-2-carboxylic acid

> <FORMULA>
C8H10N2O3S

> <MASS>
214.24200

> <MONOISOTOPIC_MASS>
214.04121

> <CHARGE>
0

> <SMILES>
[H][C@]12SCC(C)=C(N1C(=O)[C@H]2N)C(O)=O

> <INCHI>
InChI=1S/C8H10N2O3S/c1-3-2-14-7-4(9)6(11)10(7)5(3)8(12)13/h4,7H,2,9H2,1H3,(H,12,13)/t4-,7-/m1/s1

> <INCHIKEY>
NVIAYEIXYQCDAN-CLZZGJSISA-N

> <CAS_REGISTRY_NUMBER>
22252-43-3

> <REAXYS_REGISTRY_NUMBER>
1078249

> <CHEMIDPLUS>
22252-43-3

> <PUBMED_CITATION>
22371438

$$$$

Marvin  03021011322D          

 18 19  0  0  0  0            999 V2000
    2.3127   -3.6391    0.0000 C   0  0  0  0  0  0  0  0  0  0  0  0
    3.0427   -3.2272    0.0000 N   0  0  0  0  0  0  0  0  0  0  0  0
    3.7584   -3.6527    0.0000 C   0  0  0  0  0  0  0  0  0  0  0  0
    1.5903   -2.3994    0.0000 N   0  0  0  0  0  0  0  0  0  0  0  0
    1.5839   -3.2172    0.0000 C   0  0  0  0  0  0  0  0  0  0  0  0
    2.3127   -4.4684    0.0000 O   0  0  0  0  0  0  0  0  0  0  0  0
    4.4798   -3.2457    0.0000 C   0  0  0  0  0  0  0  0  0  0  0  0
    3.7445   -4.4709    0.0000 C   0  0  0  0  0  0  0  0  0  0  0  0
    2.3175   -1.9891    0.0000 C   0  0  0  0  0  0  0  0  0  0  0  0
    0.8854   -1.9793    0.0000 C   0  0  0  0  0  0  0  0  0  0  0  0
    5.1750   -4.4778    0.0000 C   0  0  0  0  0  0  0  0  0  0  0  0
    0.8653   -3.6226    0.0000 C   0  0  0  0  0  0  0  0  0  0  0  0
    4.4536   -4.8849    0.0000 C   0  0  0  0  0  0  0  0  0  0  0  0
    5.1873   -3.6568    0.0000 C   0  0  0  0  0  0  0  0  0  0  0  0
    4.4922   -2.3979    0.0000 C   0  0  0  0  0  0  0  0  0  0  0  0
    3.0260   -4.8763    0.0000 C   0  0  0  0  0  0  0  0  0  0  0  0
    0.1668   -2.3847    0.0000 C   0  0  0  0  0  0  0  0  0  0  0  0
    0.1620   -3.2054    0.0000 C   0  0  0  0  0  0  0  0  0  0  0  0
  2  1  1  0  0  0  0
  3  2  1  0  0  0  0
  4  5  1  0  0  0  0
  5  1  1  0  0  0  0
  6  1  2  0  0  0  0
  7  3  2  0  0  0  0
  8  3  1  0  0  0  0
  9  4  1  0  0  0  0
 10  4  1  0  0  0  0
 11 13  1  0  0  0  0
 12  5  1  0  0  0  0
 13  8  2  0  0  0  0
 14  7  1  0  0  0  0
 15  7  1  0  0  0  0
 16  8  1  0  0  0  0
 17 18  1  0  0  0  0
 18 12  1  0  0  0  0
 17 10  1  0  0  0  0
 14 11  2  0  0  0  0
M  END
> <ID>
CHEBI:6759

> <NAME>
mepivacaine

> <DEFINITION>
A piperidinecarboxamide in which N-methylpipecolic acid and 2,6-dimethylaniline have combined to form the amide bond. It is used as a local amide-type anaesthetic.

> <STAR>
3

> <SECONDARY_ID>
CHEBI:247981

> <SYNONYM>
N-(2,6-Dimethylphenyl)-1-methylpiperidine-2-carboxamide; N-(2,6-Dimethylphenyl)-1-methyl-2-piperidinecarboxamide; DL-Mepivacaine; Carbocaine; 1-methyl-2',6'-pipecoloxylidide; (+-)-1-Methyl-2',6'-pipecoloxylidide

> <IUPAC_NAME>
N-(2,6-dimethylphenyl)-1-methylpiperidine-2-carboxamide

> <INN>
mepivacainum; mepivacaine; mepivacaina

> <FORMULA>
C15H22N2O

> <MASS>
246.34800

> <MONOISOTOPIC_MASS>
246.17321

> <CHARGE>
0

> <SMILES>
CN1CCCCC1C(=O)Nc1c(C)cccc1C

> <INCHI>
InChI=1S/C15H22N2O/c1-11-7-6-8-12(2)14(11)16-15(18)13-9-4-5-10-17(13)3/h6-8,13H,4-5,9-10H2,1-3H3,(H,16,18)

> <INCHIKEY>
INWLQCZOYSRPNW-UHFFFAOYSA-N

> <BEILSTEIN_REGISTRY_NUMBER>
211230

> <CAS_REGISTRY_NUMBER>
96-88-8

> <REAXYS_REGISTRY_NUMBER>
211230

> <CHEMIDPLUS>
96-88-8

> <DRUGBANK_ACCESSION>
DB00961

> <HMDB_ACCESSION>
HMDB0015096

> <KEGG_COMPOUND_ACCESSION>
C07528

> <KEGG_DRUG_ACCESSION>
D08181

> <LINCS_ACCESSION>
LSM-4306

> <NIST_CHEMISTRY_WEBBOOK>
96-88-8

> <WIKIPEDIA_ACCESSION>
Mepivacaine

> <PUBMED_CITATION>
13760073; 13859098; 25369391; 25827158; 26169676; 26780408; 9013953; 9425972; 9989796

$$$$

Marvin  03050914192D          

 27 29  0  0  1  0            999 V2000
   -0.8250    0.8250    0.0000 C   0  0  1  0  0  0  0  0  0  0  0  0
    0.0000    0.0000    0.0000 N   0  0  0  0  0  0  0  0  0  0  0  0
    0.0000    0.8250    0.0000 C   0  0  2  0  0  0  0  0  0  0  0  0
   -0.8250    0.0000    0.0000 C   0  0  0  0  0  0  0  0  0  0  0  0
    0.7846   -0.2549    0.0000 C   0  0  2  0  0  0  0  0  0  0  0  0
    1.2696    0.4125    0.0000 C   0  0  0  0  0  0  0  0  0  0  0  0
    0.7846    1.0800    0.0000 S   0  0  0  0  0  0  0  0  0  0  0  0
    1.9883    0.0076    0.0000 C   0  0  0  0  0  0  0  0  0  0  0  0
    1.9883    0.8175    0.0000 C   0  0  0  0  0  0  0  0  0  0  0  0
   -1.4083   -0.5833    0.0000 O   0  0  0  0  0  0  0  0  0  0  0  0
    1.0396   -1.0395    0.0000 C   0  0  0  0  0  0  0  0  0  0  0  0
    1.8466   -1.2110    0.0000 O   0  0  0  0  0  0  0  0  0  0  0  0
    0.4875   -1.6526    0.0000 O   0  0  0  0  0  0  0  0  0  0  0  0
    0.0000    1.6500    0.0000 H   0  0  0  0  0  0  0  0  0  0  0  0
   -1.5395    1.2375    0.0000 N   0  0  0  0  0  0  0  0  0  0  0  0
   -2.2539    0.8250    0.0000 C   0  0  0  0  0  0  0  0  0  0  0  0
   -2.2539   -0.0001    0.0000 O   0  0  0  0  0  0  0  0  0  0  0  0
   -2.9684    1.2373    0.0000 C   0  0  0  0  0  0  0  0  0  0  0  0
   -3.6829    2.4748    0.0000 C   0  0  0  0  0  0  0  0  0  0  0  0
   -4.3973    2.0623    0.0000 C   0  0  0  0  0  0  0  0  0  0  0  0
   -4.3973    1.2373    0.0000 C   0  0  0  0  0  0  0  0  0  0  0  0
   -3.6829    0.8248    0.0000 C   0  0  0  0  0  0  0  0  0  0  0  0
   -2.9684    2.0623    0.0000 C   0  0  0  0  0  0  0  0  0  0  0  0
   -2.2539    2.4748    0.0000 O   0  0  0  0  0  0  0  0  0  0  0  0
   -3.6829   -0.0002    0.0000 O   0  0  0  0  0  0  0  0  0  0  0  0
   -2.2539    3.2998    0.0000 C   0  0  0  0  0  0  0  0  0  0  0  0
   -4.3973   -0.4127    0.0000 C   0  0  0  0  0  0  0  0  0  0  0  0
  3  1  1  0  0  0  0
  1  4  1  0  0  0  0
  4  2  1  0  0  0  0
  5  2  1  0  0  0  0
  3  2  1  0  0  0  0
  3  7  1  0  0  0  0
 10  4  2  0  0  0  0
  6  5  1  0  0  0  0
  5 11  1  6  0  0  0
  7  6  1  0  0  0  0
  8  6  1  0  0  0  0
  9  6  1  0  0  0  0
 12 11  1  0  0  0  0
 13 11  2  0  0  0  0
  3 14  1  6  0  0  0
 16 15  1  0  0  0  0
 17 16  2  0  0  0  0
 18 16  1  0  0  0  0
  1 15  1  1  0  0  0
 22 18  2  0  0  0  0
 18 23  1  0  0  0  0
 19 20  1  0  0  0  0
 20 21  2  0  0  0  0
 21 22  1  0  0  0  0
 19 23  2  0  0  0  0
 23 24  1  0  0  0  0
 22 25  1  0  0  0  0
 24 26  1  0  0  0  0
 25 27  1  0  0  0  0
M  END
> <ID>
CHEBI:6827

> <NAME>
methicillin

> <DEFINITION>
A penicillin that is 6-aminopenicillanic acid in which one of the amino hydrogens is replaced by a 2,6-dimethoxybenzoyl group.

> <STAR>
3

> <SYNONYM>
Methicillin; 6beta-(2,6-dimethoxybenzamido)penicillanic acid; (2S,5R,6R)-6-[(2,6-dimethoxybenzoyl)amino]-3,3-dimethyl-7-oxo-4-thia-1-azabicyclo[3.2.0]heptane-2-carboxylic acid

> <IUPAC_NAME>
6beta-(2,6-dimethoxybenzamido)-2,2-dimethylpenam-3alpha-carboxylic acid

> <INN>
meticillinum; meticilline; meticillin; meticilina

> <FORMULA>
C17H20N2O6S

> <MASS>
380.41500

> <MONOISOTOPIC_MASS>
380.10421

> <CHARGE>
0

> <SMILES>
[H][C@]12SC(C)(C)[C@@H](N1C(=O)[C@H]2NC(=O)c1c(OC)cccc1OC)C(O)=O

> <INCHI>
InChI=1S/C17H20N2O6S/c1-17(2)12(16(22)23)19-14(21)11(15(19)26-17)18-13(20)10-8(24-3)6-5-7-9(10)25-4/h5-7,11-12,15H,1-4H3,(H,18,20)(H,22,23)/t11-,12+,15-/m1/s1

> <INCHIKEY>
RJQXTJLFIWVMTO-TYNCELHUSA-N

> <BEILSTEIN_REGISTRY_NUMBER>
966227

> <CAS_REGISTRY_NUMBER>
61-32-5

> <REAXYS_REGISTRY_NUMBER>
966227

> <CHEMIDPLUS>
61-32-5

> <DRUGBANK_ACCESSION>
DB01603

> <KEGG_COMPOUND_ACCESSION>
C07177

> <WIKIPEDIA_ACCESSION>
Meticillin

> <PUBMED_CITATION>
11969119; 12569987; 24405901; 24433925; 26962156

$$$$

Marvin  03050915242D          

 37 40  0  0  1  0            999 V2000
   10.1811  -10.3333    0.0000 C   0  0  2  0  0  0  0  0  0  0  0  0
   10.1811  -11.1541    0.0000 C   0  0  0  0  0  0  0  0  0  0  0  0
   11.0019  -11.1541    0.0000 N   0  0  0  0  0  0  0  0  0  0  0  0
   11.0019  -10.3333    0.0000 C   0  0  2  0  0  0  0  0  0  0  0  0
   11.7817  -11.4003    0.0000 C   0  0  2  0  0  0  0  0  0  0  0  0
   12.2742  -10.7437    0.0000 C   0  0  0  0  0  0  0  0  0  0  0  0
   11.7817  -10.0871    0.0000 S   0  0  0  0  0  0  0  0  0  0  0  0
   12.8487  -11.3183    0.0000 C   0  0  0  0  0  0  0  0  0  0  0  0
   12.8487  -10.1691    0.0000 C   0  0  0  0  0  0  0  0  0  0  0  0
   12.0689  -12.2212    0.0000 C   0  0  0  0  0  0  0  0  0  0  0  0
   12.8897  -12.2212    0.0000 O   0  0  0  0  0  0  0  0  0  0  0  0
   11.5765  -12.8778    0.0000 O   0  0  0  0  0  0  0  0  0  0  0  0
   11.0019   -9.5125    0.0000 H   0  0  0  0  0  0  0  0  0  0  0  0
    9.4835   -9.9229    0.0000 N   0  0  0  0  0  0  0  0  0  0  0  0
    8.7857  -10.3333    0.0000 C   0  0  0  0  0  0  0  0  0  0  0  0
    8.7857  -11.1541    0.0000 O   0  0  0  0  0  0  0  0  0  0  0  0
    8.0712   -9.9208    0.0000 C   0  0  1  0  0  0  0  0  0  0  0  0
    8.0712   -9.0958    0.0000 C   0  0  0  0  0  0  0  0  0  0  0  0
    8.0712   -7.4458    0.0000 C   0  0  0  0  0  0  0  0  0  0  0  0
    7.3568   -7.8583    0.0000 C   0  0  0  0  0  0  0  0  0  0  0  0
    7.3568   -8.6833    0.0000 C   0  0  0  0  0  0  0  0  0  0  0  0
    8.7857   -8.6833    0.0000 C   0  0  0  0  0  0  0  0  0  0  0  0
    8.7857   -7.8583    0.0000 C   0  0  0  0  0  0  0  0  0  0  0  0
    7.3568  -10.3333    0.0000 N   0  0  0  0  0  0  0  0  0  0  0  0
    6.6423   -9.9208    0.0000 C   0  0  0  0  0  0  0  0  0  0  0  0
    6.6423   -9.0958    0.0000 O   0  0  0  0  0  0  0  0  0  0  0  0
    5.9278  -10.3333    0.0000 N   0  0  0  0  0  0  0  0  0  0  0  0
    5.2604   -9.8484    0.0000 C   0  0  0  0  0  0  0  0  0  0  0  0
    4.5930  -10.3333    0.0000 N   0  0  0  0  0  0  0  0  0  0  0  0
    4.8479  -11.1179    0.0000 C   0  0  0  0  0  0  0  0  0  0  0  0
    5.6729  -11.1179    0.0000 C   0  0  0  0  0  0  0  0  0  0  0  0
    5.2604   -9.0234    0.0000 O   0  0  0  0  0  0  0  0  0  0  0  0
    3.8785   -9.9208    0.0000 S   0  0  0  0  0  0  0  0  0  0  0  0
    4.2910   -9.2063    0.0000 O   0  0  0  0  0  0  0  0  0  0  0  0
    3.4660  -10.6353    0.0000 O   0  0  0  0  0  0  0  0  0  0  0  0
    3.1640   -9.5083    0.0000 C   0  0  0  0  0  0  0  0  0  0  0  0
    9.5977  -11.7375    0.0000 O   0  0  0  0  0  0  0  0  0  0  0  0
  1  2  1  0  0  0  0
  2  3  1  0  0  0  0
  3  4  1  0  0  0  0
  1  4  1  0  0  0  0
  3  5  1  0  0  0  0
  5  6  1  0  0  0  0
  6  7  1  0  0  0  0
  4  7  1  0  0  0  0
  6  8  1  0  0  0  0
  6  9  1  0  0  0  0
  5 10  1  6  0  0  0
 10 11  1  0  0  0  0
 10 12  2  0  0  0  0
  4 13  1  6  0  0  0
  1 14  1  1  0  0  0
 14 15  1  0  0  0  0
 15 16  2  0  0  0  0
 15 17  1  0  0  0  0
 17 18  1  6  0  0  0
 21 18  2  0  0  0  0
 18 22  1  0  0  0  0
 19 20  2  0  0  0  0
 20 21  1  0  0  0  0
 22 23  2  0  0  0  0
 19 23  1  0  0  0  0
 17 24  1  0  0  0  0
 24 25  1  0  0  0  0
 25 26  2  0  0  0  0
 25 27  1  0  0  0  0
 31 27  1  0  0  0  0
 28 27  1  0  0  0  0
 28 29  1  0  0  0  0
 29 30  1  0  0  0  0
 30 31  1  0  0  0  0
 28 32  2  0  0  0  0
 29 33  1  0  0  0  0
 33 34  2  0  0  0  0
 33 35  2  0  0  0  0
 33 36  1  0  0  0  0
  2 37  2  0  0  0  0
M  END
> <ID>
CHEBI:6919

> <NAME>
mezlocillin

> <DEFINITION>
A penicillin in which the substituent at position 6 of the penam ring is a (2R)-2-[3-(methanesulfonyl)-2-oxoimidazolidine-1-carboxamido]-2-phenylacetamido group.

> <STAR>
3

> <SYNONYM>
Mezlocillin; Mezlin; 6beta-{(2R)-2-[3-(methanesulfonyl)-2-oxoimidazolidine-1-carboxamido]-2-phenylacetamido}penicillanic acid; (2S,5R,6R)-3,3-dimethyl-6-{[(2R)-2-({[3-(methylsulfonyl)-2-oxoimidazolidin-1-yl]carbonyl}amino)-2-phenylacetyl]amino}-7-oxo-4-thia-1-azabicyclo[3.2.0]heptane-2-carboxylic acid

> <IUPAC_NAME>
6beta-{(2R)-2-[3-(methanesulfonyl)-2-oxoimidazolidine-1-carboxamido]-2-phenylacetamido}-2,2-dimethylpenam-3alpha-carboxylic acid

> <INN>
mezlocillinum; mezlocilline; mezlocillin; mezlocilina

> <FORMULA>
C21H25N5O8S2

> <MASS>
539.58200

> <MONOISOTOPIC_MASS>
539.11446

> <CHARGE>
0

> <SMILES>
[H][C@]12SC(C)(C)[C@@H](N1C(=O)[C@H]2NC(=O)[C@H](NC(=O)N1CCN(C1=O)S(C)(=O)=O)c1ccccc1)C(O)=O

> <INCHI>
InChI=1S/C21H25N5O8S2/c1-21(2)14(18(29)30)26-16(28)13(17(26)35-21)22-15(27)12(11-7-5-4-6-8-11)23-19(31)24-9-10-25(20(24)32)36(3,33)34/h4-8,12-14,17H,9-10H2,1-3H3,(H,22,27)(H,23,31)(H,29,30)/t12-,13-,14+,17-/m1/s1

> <INCHIKEY>
YPBATNHYBCGSSN-VWPFQQQWSA-N

> <BEILSTEIN_REGISTRY_NUMBER>
6081499

> <CAS_REGISTRY_NUMBER>
51481-65-3

> <REAXYS_REGISTRY_NUMBER>
6081499

> <CHEMIDPLUS>
51481-65-3

> <DRUGBANK_ACCESSION>
DB00948

> <KEGG_COMPOUND_ACCESSION>
C07221

> <KEGG_DRUG_ACCESSION>
D05021

> <WIKIPEDIA_ACCESSION>
Mezlocillin

> <PUBMED_CITATION>
1701026; 29017833; 6460964; 9403281

$$$$

Ketcher 07211510002D 1   1.00000     0.00000     0

 19 21  0     0  0            999 V2000
   15.8888  -12.0684    0.0000 C   0  0  0  0  0  0  0  0  0  0  0  0
   14.9964  -12.5121    0.0000 N   0  0  0  0  0  0  0  0  0  0  0  0
   14.0877  -12.0954    0.0000 C   0  0  0  0  0  0  0  0  0  0  0  0
   13.8498  -11.1319    0.0000 C   0  0  0  0  0  0  0  0  0  0  0  0
   16.0942  -11.0838    0.0000 C   0  0  0  0  0  0  0  0  0  0  0  0
   14.4545  -10.3339    0.0000 C   0  0  0  0  0  0  0  0  0  0  0  0
   15.4548  -10.3153    0.0000 C   0  0  0  0  0  0  0  0  0  0  0  0
   12.8897  -10.8542    0.0000 C   0  0  0  0  0  0  0  0  0  0  0  0
   12.1692  -11.5468    0.0000 C   0  0  0  0  0  0  0  0  0  0  0  0
   12.4072  -12.5104    0.0000 C   0  0  0  0  0  0  0  0  0  0  0  0
   13.3672  -12.7880    0.0000 C   0  0  0  0  0  0  0  0  0  0  0  0
   16.6340  -12.7343    0.0000 C   0  0  0  0  0  0  0  0  0  0  0  0
   17.5833  -12.4219    0.0000 C   0  0  0  0  0  0  0  0  0  0  0  0
   17.7888  -11.4373    0.0000 C   0  0  0  0  0  0  0  0  0  0  0  0
   17.0435  -10.7713    0.0000 C   0  0  0  0  0  0  0  0  0  0  0  0
   13.9962   -9.4329    0.0000 O   0  0  0  0  0  0  0  0  0  0  0  0
   15.0122  -13.5125    0.0000 C   0  0  0  0  0  0  0  0  0  0  0  0
   15.8890  -14.0005    0.0000 N   0  0  0  0  0  0  0  0  0  0  0  0
   14.1580  -14.0238    0.0000 O   0  0  0  0  0  0  0  0  0  0  0  0
  3  4  1  0     0  0
  1  5  1  0     0  0
  4  6  1  0     0  0
  2  3  1  0     0  0
  5  7  1  0     0  0
  1  2  1  0     0  0
  6  7  1  0     0  0
  4  8  2  0     0  0
  8  9  1  0     0  0
  9 10  2  0     0  0
 10 11  1  0     0  0
  3 11  2  0     0  0
  1 12  2  0     0  0
 12 13  1  0     0  0
 13 14  2  0     0  0
 14 15  1  0     0  0
  5 15  2  0     0  0
  6 16  1  0     0  0
  2 17  1  0     0  0
 17 18  1  0     0  0
 17 19  2  0     0  0
M  END
> <ID>
CHEBI:701

> <NAME>
licarbazepine

> <DEFINITION>
A dibenzoazepine that is 5H-dibenzo[b,f]azepine, reduced across the C-10,11 positions and carrying a carbamoyl substituent at the azepine nitrogen and a hydroxy function at C-10. A voltage-gated sodium channel blocker with anticonvulsant and mood-stabilizing effects, it is related to oxcarbazepine and is an active metabolite of oxcarbazepine.

> <STAR>
3

> <SYNONYM>
GP 47779; 10-Hydroxycarbazepine; 10-Hydroxycarbamazepine; 10,11-Dihydro-10-hydroxycarbamazepine

> <IUPAC_NAME>
10-hydroxy-10,11-dihydro-5H-dibenzo[b,f]azepine-5-carboxamide

> <INN>
licarbazepine

> <FORMULA>
C15H14N2O2

> <MASS>
254.28390

> <MONOISOTOPIC_MASS>
254.10553

> <CHARGE>
0

> <SMILES>
NC(=O)N1c2ccccc2CC(O)c2ccccc12

> <INCHI>
InChI=1S/C15H14N2O2/c16-15(19)17-12-7-3-1-5-10(12)9-14(18)11-6-2-4-8-13(11)17/h1-8,14,18H,9H2,(H2,16,19)

> <INCHIKEY>
BMPDWHIDQYTSHX-UHFFFAOYSA-N

> <CAS_REGISTRY_NUMBER>
29331-92-8

> <REAXYS_REGISTRY_NUMBER>
1540211

> <CHEMIDPLUS>
29331-92-8

> <KEGG_COMPOUND_ACCESSION>
C07493

> <WIKIPEDIA_ACCESSION>
Licarbazepine

> <PUBMED_CITATION>
22322005; 23507454; 24123382; 24981999; 25261836; 25489632

$$$$

Marvin  10191216302D          

 44 48  0  0  1  0            999 V2000
   10.1562   -6.7864    0.0000 C   0  0  2  0  0  0  0  0  0  0  0  0
   10.1562   -7.6116    0.0000 N   0  0  0  0  0  0  0  0  0  0  0  0
   10.8577   -8.0243    0.0000 C   0  0  0  0  0  0  0  0  0  0  0  0
   11.5591   -7.6116    0.0000 C   0  0  0  0  0  0  0  0  0  0  0  0
   11.5591   -6.7864    0.0000 C   0  0  0  0  0  0  0  0  0  0  0  0
   10.8577   -6.3738    0.0000 S   0  0  0  0  0  0  0  0  0  0  0  0
    9.3309   -6.7864    0.0000 C   0  0  1  0  0  0  0  0  0  0  0  0
    9.3309   -7.6116    0.0000 C   0  0  0  0  0  0  0  0  0  0  0  0
    8.5882   -6.3738    0.0000 N   0  0  0  0  0  0  0  0  0  0  0  0
    7.8867   -6.7864    0.0000 C   0  0  0  0  0  0  0  0  0  0  0  0
    7.8867   -7.6116    0.0000 O   0  0  0  0  0  0  0  0  0  0  0  0
    8.5882   -8.0243    0.0000 O   0  0  0  0  0  0  0  0  0  0  0  0
    7.1852   -6.3738    0.0000 C   0  0  0  0  0  0  0  0  0  0  0  0
   12.3018   -8.0243    0.0000 S   0  0  0  0  0  0  0  0  0  0  0  0
    6.4425   -6.7864    0.0000 C   0  0  0  0  0  0  0  0  0  0  0  0
   10.1562   -5.9611    0.0000 H   0  0  0  0  0  0  0  0  0  0  0  0
    5.8236   -6.2912    0.0000 N   0  0  0  0  0  0  0  0  0  0  0  0
    5.1221   -6.7451    0.0000 S   0  0  0  0  0  0  0  0  0  0  0  0
    5.3698   -7.5704    0.0000 C   0  0  0  0  0  0  0  0  0  0  0  0
    6.1949   -7.5704    0.0000 N   0  0  0  0  0  0  0  0  0  0  0  0
    7.1852   -5.5485    0.0000 N   0  0  0  0  0  0  0  0  0  0  0  0
   10.8577   -8.8495    0.0000 C   0  0  0  0  0  0  0  0  0  0  0  0
   11.5591   -9.2622    0.0000 O   0  5  0  0  0  0  0  0  0  0  0  0
   10.1149   -9.2622    0.0000 O   0  0  0  0  0  0  0  0  0  0  0  0
    4.8745   -8.2306    0.0000 N   0  0  0  0  0  0  0  0  0  0  0  0
    7.8867   -5.1358    0.0000 O   0  0  0  0  0  0  0  0  0  0  0  0
    8.6047   -5.5427    0.0000 C   0  0  0  0  0  0  0  0  0  0  0  0
    9.3012   -5.1329    0.0000 C   0  0  0  0  0  0  0  0  0  0  0  0
    4.0493   -8.2306    0.0000 P   0  0  0  0  0  0  0  0  0  0  0  0
    3.2240   -8.2306    0.0000 O   0  0  0  0  0  0  0  0  0  0  0  0
    4.0493   -7.4053    0.0000 O   0  0  0  0  0  0  0  0  0  0  0  0
    4.0493   -9.0558    0.0000 O   0  0  0  0  0  0  0  0  0  0  0  0
   13.0068   -7.6017    0.0000 C   0  0  0  0  0  0  0  0  0  0  0  0
   13.7602   -7.9225    0.0000 S   0  0  0  0  0  0  0  0  0  0  0  0
   14.2982   -7.3049    0.0000 C   0  0  0  0  0  0  0  0  0  0  0  0
   13.8771   -6.6026    0.0000 C   0  0  0  0  0  0  0  0  0  0  0  0
   13.0790   -6.7860    0.0000 N   0  0  0  0  0  0  0  0  0  0  0  0
   14.1924   -5.8616    0.0000 C   0  0  0  0  0  0  0  0  0  0  0  0
   15.0107   -5.7619    0.0000 C   0  0  0  0  0  0  0  0  0  0  0  0
   15.3338   -5.0027    0.0000 C   0  0  0  0  0  0  0  0  0  0  0  0
   14.8378   -4.3434    0.0000 N   0  3  0  0  0  0  0  0  0  0  0  0
   14.0195   -4.4432    0.0000 C   0  0  0  0  0  0  0  0  0  0  0  0
   13.6965   -5.2023    0.0000 C   0  0  0  0  0  0  0  0  0  0  0  0
   15.1610   -3.5840    0.0000 C   0  0  0  0  0  0  0  0  0  0  0  0
  1  2  1  0  0  0  0
  2  3  1  0  0  0  0
  3  4  2  0  0  0  0
  4  5  1  0  0  0  0
  5  6  1  0  0  0  0
  1  6  1  0  0  0  0
  1  7  1  0  0  0  0
  7  8  1  0  0  0  0
  2  8  1  0  0  0  0
  7  9  1  1  0  0  0
  9 10  1  0  0  0  0
 10 11  2  0  0  0  0
  8 12  2  0  0  0  0
 10 13  1  0  0  0  0
  4 14  1  0  0  0  0
 13 15  1  0  0  0  0
  1 16  1  6  0  0  0
 15 17  2  0  0  0  0
 17 18  1  0  0  0  0
 18 19  1  0  0  0  0
 19 20  2  0  0  0  0
 15 20  1  0  0  0  0
 13 21  2  0  0  0  0
  3 22  1  0  0  0  0
 22 23  1  0  0  0  0
 22 24  2  0  0  0  0
 19 25  1  0  0  0  0
 21 26  1  0  0  0  0
 26 27  1  0  0  0  0
 27 28  1  0  0  0  0
 25 29  1  0  0  0  0
 29 30  1  0  0  0  0
 29 31  1  0  0  0  0
 29 32  2  0  0  0  0
 14 33  1  0  0  0  0
 33 34  1  0  0  0  0
 34 35  1  0  0  0  0
 35 36  2  0  0  0  0
 36 37  1  0  0  0  0
 33 37  2  0  0  0  0
 36 38  1  0  0  0  0
 38 39  2  0  0  0  0
 39 40  1  0  0  0  0
 40 41  2  0  0  0  0
 41 42  1  0  0  0  0
 42 43  2  0  0  0  0
 38 43  1  0  0  0  0
 41 44  1  0  0  0  0
M  CHG  2  23  -1  41   1
M  END
> <ID>
CHEBI:70718

> <NAME>
ceftaroline fosamil

> <DEFINITION>
A cephalosporin having [4-(1-methylpyridinium-4-yl)-1,3-thiazol-2-yl]sulfanyl and {(2Z)-2-(ethoxyimino)-2-[5-(phosphonoamino)-1,2,4-thiadiazol-3-yl]acetyl}amino side groups located at positions 3 and 7 respectively. The N-phospho prodrug of ceftaroline, a broad-spectrum antibiotic active against methicillin-resistant Staphylococcus aureus (MRSA). It is used for the treatment of adults with acute bacterial skin and skin structure infections.

> <STAR>
3

> <SYNONYM>
(6R,7R)-7-({(2Z)-2-(ethoxyimino)-2-[5-(phosphonoamino)-1,2,4-thiadiazol-3-yl]acetyl}amino)-3-{[4-(1-methylpyridinium-4-yl)-1,3-thiazol-2-yl]sulfanyl}-8-oxo-5-thia-1-azabicyclo[4.2.0]oct-2-ene-2-carboxylate

> <IUPAC_NAME>
7-({(2Z)-2-(ethoxyimino)-2-[5-(phosphonoamino)-1,2,4-thiadiazol-3-yl]acetyl}amino)-3-{[4-(1-methylpyridinium-4-yl)-1,3-thiazol-2-yl]sulfanyl}-3,4-didehydrocepham-4-carboxylate

> <INN>
ceftarolinum fosamilum; ceftaroline fosamil; ceftaroline fosamil; ceftarolina fosamilo

> <FORMULA>
C22H21N8O8PS4

> <MASS>
684.68500

> <MONOISOTOPIC_MASS>
684.01028

> <CHARGE>
0

> <SMILES>
[H][C@]12SCC(Sc3nc(cs3)-c3cc[n+](C)cc3)=C(N1C(=O)[C@H]2NC(=O)C(=N/OCC)\c1nsc(NP(O)(O)=O)n1)C([O-])=O

> <INCHI>
InChI=1S/C22H21N8O8PS4/c1-3-38-26-13(16-25-21(43-28-16)27-39(35,36)37)17(31)24-14-18(32)30-15(20(33)34)12(9-40-19(14)30)42-22-23-11(8-41-22)10-4-6-29(2)7-5-10/h4-8,14,19H,3,9H2,1-2H3,(H4-,24,25,27,28,31,33,34,35,36,37)/b26-13-/t14-,19-/m1/s1

> <INCHIKEY>
ZCCUWMICIWSJIX-NQJJCJBVSA-N

> <CAS_REGISTRY_NUMBER>
229016-73-3

> <REAXYS_REGISTRY_NUMBER>
9535806

> <CHEMIDPLUS>
229016-73-3

> <WIKIPEDIA_ACCESSION>
Ceftaroline_fosamil

> <PUBMED_CITATION>
21076711; 21115453; 21115454; 21115455; 21115456; 21162631; 21252841; 21393213; 21482565; 21482566; 21482568; 21482570; 21548186; 21897727; 22058102; 22314524; 22330908; 22354289; 22355258; 22594846; 22779432; 22903949; 22985880; 29017833

$$$$

Marvin  10221209452D          

 40 44  0  0  1  0            999 V2000
   10.7627   -5.3287    0.0000 C   0  0  2  0  0  0  0  0  0  0  0  0
   10.7627   -6.1539    0.0000 N   0  0  0  0  0  0  0  0  0  0  0  0
   11.4642   -6.5666    0.0000 C   0  0  0  0  0  0  0  0  0  0  0  0
   12.1656   -6.1539    0.0000 C   0  0  0  0  0  0  0  0  0  0  0  0
   12.1656   -5.3287    0.0000 C   0  0  0  0  0  0  0  0  0  0  0  0
   11.4642   -4.9161    0.0000 S   0  0  0  0  0  0  0  0  0  0  0  0
    9.9374   -5.3287    0.0000 C   0  0  1  0  0  0  0  0  0  0  0  0
    9.9374   -6.1539    0.0000 C   0  0  0  0  0  0  0  0  0  0  0  0
    9.1947   -4.9161    0.0000 N   0  0  0  0  0  0  0  0  0  0  0  0
    8.4932   -5.3287    0.0000 C   0  0  0  0  0  0  0  0  0  0  0  0
    8.4932   -6.1539    0.0000 O   0  0  0  0  0  0  0  0  0  0  0  0
    9.1947   -6.5666    0.0000 O   0  0  0  0  0  0  0  0  0  0  0  0
    7.7917   -4.9161    0.0000 C   0  0  0  0  0  0  0  0  0  0  0  0
   12.9083   -6.5666    0.0000 S   0  0  0  0  0  0  0  0  0  0  0  0
    7.0490   -5.3287    0.0000 C   0  0  0  0  0  0  0  0  0  0  0  0
   10.7627   -4.5034    0.0000 H   0  0  0  0  0  0  0  0  0  0  0  0
    6.4301   -4.8335    0.0000 N   0  0  0  0  0  0  0  0  0  0  0  0
    5.7286   -5.2874    0.0000 S   0  0  0  0  0  0  0  0  0  0  0  0
    5.9763   -6.1127    0.0000 C   0  0  0  0  0  0  0  0  0  0  0  0
    6.8013   -6.1127    0.0000 N   0  0  0  0  0  0  0  0  0  0  0  0
    7.7917   -4.0908    0.0000 N   0  0  0  0  0  0  0  0  0  0  0  0
   11.4642   -7.3918    0.0000 C   0  0  0  0  0  0  0  0  0  0  0  0
   12.1656   -7.8046    0.0000 O   0  5  0  0  0  0  0  0  0  0  0  0
   10.7214   -7.8046    0.0000 O   0  0  0  0  0  0  0  0  0  0  0  0
    5.4809   -6.7729    0.0000 N   0  0  0  0  0  0  0  0  0  0  0  0
    8.4932   -3.6781    0.0000 O   0  0  0  0  0  0  0  0  0  0  0  0
    9.2112   -4.0850    0.0000 C   0  0  0  0  0  0  0  0  0  0  0  0
    9.9077   -3.6752    0.0000 C   0  0  0  0  0  0  0  0  0  0  0  0
   13.6134   -6.1440    0.0000 C   0  0  0  0  0  0  0  0  0  0  0  0
   14.3668   -6.4648    0.0000 S   0  0  0  0  0  0  0  0  0  0  0  0
   14.9048   -5.8472    0.0000 C   0  0  0  0  0  0  0  0  0  0  0  0
   14.4837   -5.1449    0.0000 C   0  0  0  0  0  0  0  0  0  0  0  0
   13.6856   -5.3283    0.0000 N   0  0  0  0  0  0  0  0  0  0  0  0
   14.7990   -4.4039    0.0000 C   0  0  0  0  0  0  0  0  0  0  0  0
   15.6173   -4.3042    0.0000 C   0  0  0  0  0  0  0  0  0  0  0  0
   15.9404   -3.5450    0.0000 C   0  0  0  0  0  0  0  0  0  0  0  0
   15.4444   -2.8857    0.0000 N   0  3  0  0  0  0  0  0  0  0  0  0
   14.6261   -2.9855    0.0000 C   0  0  0  0  0  0  0  0  0  0  0  0
   14.3031   -3.7446    0.0000 C   0  0  0  0  0  0  0  0  0  0  0  0
   15.7676   -2.1263    0.0000 C   0  0  0  0  0  0  0  0  0  0  0  0
  1  2  1  0  0  0  0
  2  3  1  0  0  0  0
  3  4  2  0  0  0  0
  4  5  1  0  0  0  0
  5  6  1  0  0  0  0
  1  6  1  0  0  0  0
  1  7  1  0  0  0  0
  7  8  1  0  0  0  0
  2  8  1  0  0  0  0
  7  9  1  1  0  0  0
  9 10  1  0  0  0  0
 10 11  2  0  0  0  0
  8 12  2  0  0  0  0
 10 13  1  0  0  0  0
  4 14  1  0  0  0  0
 13 15  1  0  0  0  0
  1 16  1  6  0  0  0
 15 17  2  0  0  0  0
 17 18  1  0  0  0  0
 18 19  1  0  0  0  0
 19 20  2  0  0  0  0
 15 20  1  0  0  0  0
 13 21  2  0  0  0  0
  3 22  1  0  0  0  0
 22 23  1  0  0  0  0
 22 24  2  0  0  0  0
 19 25  1  0  0  0  0
 21 26  1  0  0  0  0
 26 27  1  0  0  0  0
 27 28  1  0  0  0  0
 14 29  1  0  0  0  0
 29 30  1  0  0  0  0
 30 31  1  0  0  0  0
 31 32  2  0  0  0  0
 32 33  1  0  0  0  0
 29 33  2  0  0  0  0
 32 34  1  0  0  0  0
 34 35  2  0  0  0  0
 35 36  1  0  0  0  0
 36 37  2  0  0  0  0
 37 38  1  0  0  0  0
 38 39  2  0  0  0  0
 34 39  1  0  0  0  0
 37 40  1  0  0  0  0
M  CHG  2  23  -1  37   1
M  END
> <ID>
CHEBI:70729

> <NAME>
ceftaroline

> <DEFINITION>
A cephalosporin that is the active metabolite of the prodrug ceftaroline fosamil.  Used for the treatment of adults with acute bacterial skin and skin structure infections.

> <STAR>
3

> <SYNONYM>
T-91825; T 91825; PPI 0903M

> <IUPAC_NAME>
(6R,7R)-7-{[(2Z)-2-(5-amino-1,2,4-thiadiazol-3-yl)-2-(ethoxyimino)acetyl]amino}-3-{[4-(1-methylpyridinium-4-yl)-1,3-thiazol-2-yl]sulfanyl}-8-oxo-5-thia-1-azabicyclo[4.2.0]oct-2-ene-2-carboxylate

> <FORMULA>
C22H20N8O5S4

> <MASS>
604.70500

> <MONOISOTOPIC_MASS>
604.04395

> <CHARGE>
0

> <SMILES>
[H][C@]12SCC(Sc3nc(cs3)-c3cc[n+](C)cc3)=C(N1C(=O)[C@H]2NC(=O)C(=N/OCC)\c1nsc(N)n1)C([O-])=O

> <INCHI>
InChI=1S/C22H20N8O5S4/c1-3-35-27-13(16-26-21(23)39-28-16)17(31)25-14-18(32)30-15(20(33)34)12(9-36-19(14)30)38-22-24-11(8-37-22)10-4-6-29(2)7-5-10/h4-8,14,19H,3,9H2,1-2H3,(H3-,23,25,26,28,31,33,34)/b27-13-/t14-,19-/m1/s1

> <INCHIKEY>
RGFBRLNVZCCMSV-BIRGHMBHSA-N

> <CAS_REGISTRY_NUMBER>
189345-04-8

> <REAXYS_REGISTRY_NUMBER>
9532372

> <CHEMIDPLUS>
189345-04-8

> <PUBMED_CITATION>
16048970; 22294860; 22311935; 22330908; 22354289; 22355258; 22357801; 22398650; 22467630; 22470115; 22491687; 22547933; 22733066; 22764328; 22796201; 22869564; 22903949; 22903950; 22903951; 22903952; 23023107; 23027193; 23070161

$$$$

Marvin  03181314292D          

 19 19  0  0  1  0            999 V2000
   -0.7145    0.4125    0.0000 C   0  0  1  0  0  0  0  0  0  0  0  0
    0.0000    0.8250    0.0000 O   0  0  0  0  0  0  0  0  0  0  0  0
    0.7145    0.4125    0.0000 C   0  0  0  0  0  0  0  0  0  0  0  0
    0.7145   -0.4125    0.0000 C   0  0  1  0  0  0  0  0  0  0  0  0
    0.0000   -0.8250    0.0000 C   0  0  2  0  0  0  0  0  0  0  0  0
   -0.7145   -0.4125    0.0000 C   0  0  2  0  0  0  0  0  0  0  0  0
    1.4289   -0.8250    0.0000 O   0  0  0  0  0  0  0  0  0  0  0  0
    0.0000   -1.6500    0.0000 O   0  0  0  0  0  0  0  0  0  0  0  0
   -1.4289   -0.8250    0.0000 O   0  0  0  0  0  0  0  0  0  0  0  0
   -1.4289    0.8250    0.0000 C   0  0  0  0  0  0  0  0  0  0  0  0
   -2.1434    0.4125    0.0000 O   0  0  0  0  0  0  0  0  0  0  0  0
    1.4289    0.8250    0.0000 O   0  0  0  0  0  0  0  0  0  0  0  0
   -2.8579    0.8250    0.0000 C   0  0  0  0  0  0  0  0  0  0  0  0
   -3.5723    0.4125    0.0000 C   0  0  0  0  0  0  0  0  0  0  0  0
   -4.2868    0.8250    0.0000 C   0  0  0  0  0  0  0  0  0  0  0  0
   -5.0013    0.4125    0.0000 C   0  0  0  0  0  0  0  0  0  0  0  0
   -5.7158    0.8250    0.0000 O   0  0  0  0  0  0  0  0  0  0  0  0
   -2.8579    1.6500    0.0000 O   0  0  0  0  0  0  0  0  0  0  0  0
   -3.5723   -0.4125    0.0000 C   0  0  0  0  0  0  0  0  0  0  0  0
  1 10  1  1  0  0  0
  2  1  1  0  0  0  0
  3  2  1  0  0  0  0
  3 12  1  0  0  0  0
  3  4  1  0  0  0  0
  4  7  1  6  0  0  0
  4  5  1  0  0  0  0
  5  8  1  1  0  0  0
  5  6  1  0  0  0  0
  1  6  1  0  0  0  0
  6  9  1  6  0  0  0
 10 11  1  0  0  0  0
 11 13  1  0  0  0  0
 13 14  1  0  0  0  0
 14 15  1  0  0  0  0
 15 16  1  0  0  0  0
 16 17  1  0  0  0  0
 13 18  2  0  0  0  0
 14 19  2  0  0  0  0
M  END
> <ID>
CHEBI:72781

> <NAME>
6-tuliposide A

> <DEFINITION>
A 6-O-acyl-D-glucose that is the 6-O-(4-hydroxy-2-methylenebutanoyl) derivative of D-glucopyranose.

> <STAR>
3

> <SYNONYM>
6-tuliposide A

> <IUPAC_NAME>
6-O-(4-hydroxy-2-methylenebutanoyl)-D-glucopyranose

> <FORMULA>
C11H18O8

> <MASS>
278.25580

> <MONOISOTOPIC_MASS>
278.10017

> <CHARGE>
0

> <SMILES>
OCCC(=C)C(=O)OC[C@H]1OC(O)[C@H](O)[C@@H](O)[C@@H]1O

> <INCHI>
InChI=1S/C11H18O8/c1-5(2-3-12)10(16)18-4-6-7(13)8(14)9(15)11(17)19-6/h6-9,11-15,17H,1-4H2/t6-,7-,8+,9-,11?/m1/s1

> <INCHIKEY>
NABVFHUVYXEKSQ-OGADHKOYSA-N

> <REAXYS_REGISTRY_NUMBER>
5753001

> <METACYC_ACCESSION>
CPD-15227

> <PUBMED_CITATION>
10385332; 19661715; 22474185; 3160533

$$$$

Marvin  04121311082D          

 30 32  0  0  1  0            999 V2000
   14.3187  -21.9155    0.0000 C   0  0  2  0  0  0  0  0  0  0  0  0
   14.3187  -22.7405    0.0000 C   0  0  0  0  0  0  0  0  0  0  0  0
   15.1437  -22.7405    0.0000 N   0  0  0  0  0  0  0  0  0  0  0  0
   15.1437  -21.9155    0.0000 C   0  0  2  0  0  0  0  0  0  0  0  0
   15.9283  -22.9955    0.0000 C   0  0  2  0  0  0  0  0  0  0  0  0
   16.4133  -22.3280    0.0000 C   0  0  0  0  0  0  0  0  0  0  0  0
   15.9283  -21.6606    0.0000 S   0  0  0  0  0  0  0  0  0  0  0  0
   17.1320  -22.7330    0.0000 C   0  0  0  0  0  0  0  0  0  0  0  0
   17.1320  -21.9230    0.0000 C   0  0  0  0  0  0  0  0  0  0  0  0
   16.1833  -23.7801    0.0000 C   0  0  0  0  0  0  0  0  0  0  0  0
   16.9902  -23.9515    0.0000 O   0  0  0  0  0  0  0  0  0  0  0  0
   15.6311  -24.3932    0.0000 O   0  0  0  0  0  0  0  0  0  0  0  0
   13.6042  -21.5030    0.0000 N   0  0  0  0  0  0  0  0  0  0  0  0
   12.8898  -21.9155    0.0000 C   0  0  0  0  0  0  0  0  0  0  0  0
   13.7354  -23.3239    0.0000 O   0  0  0  0  0  0  0  0  0  0  0  0
   15.1437  -21.0905    0.0000 H   0  0  0  0  0  0  0  0  0  0  0  0
   12.1753  -21.5030    0.0000 C   0  0  0  0  0  0  0  0  0  0  0  0
   11.4608  -21.9155    0.0000 C   0  0  0  0  0  0  0  0  0  0  0  0
   10.7463  -21.5030    0.0000 C   0  0  0  0  0  0  0  0  0  0  0  0
   10.0319  -21.9156    0.0000 C   0  0  0  0  0  0  0  0  0  0  0  0
    9.3174  -21.5031    0.0000 N   0  0  0  0  0  0  0  0  0  0  0  0
    8.6030  -21.9157    0.0000 C   0  0  0  0  0  0  0  0  0  0  0  0
    8.6030  -22.7407    0.0000 C   0  0  0  0  0  0  0  0  0  0  0  0
    7.8884  -21.5032    0.0000 C   0  0  0  0  0  0  0  0  0  0  0  0
    7.8884  -23.1532    0.0000 C   0  0  0  0  0  0  0  0  0  0  0  0
    7.1740  -21.9157    0.0000 C   0  0  0  0  0  0  0  0  0  0  0  0
    7.1740  -22.7407    0.0000 C   0  0  0  0  0  0  0  0  0  0  0  0
    6.4595  -23.1532    0.0000 N   0  0  0  0  0  0  0  0  0  0  0  0
   10.0319  -22.7406    0.0000 H   0  0  0  0  0  0  0  0  0  0  0  0
   12.8898  -22.7405    0.0000 H   0  0  0  0  0  0  0  0  0  0  0  0
  1  2  1  0  0  0  0
  2  3  1  0  0  0  0
  4  3  1  0  0  0  0
  4  1  1  0  0  0  0
  3  5  1  0  0  0  0
  5  6  1  0  0  0  0
  6  7  1  0  0  0  0
  4  7  1  0  0  0  0
  6  8  1  0  0  0  0
  6  9  1  0  0  0  0
  5 10  1  6  0  0  0
 10 11  1  0  0  0  0
 10 12  2  0  0  0  0
  1 13  1  1  0  0  0
 13 14  2  0  0  0  0
  2 15  2  0  0  0  0
  4 16  1  6  0  0  0
 14 17  1  0  0  0  0
 17 18  1  0  0  0  0
 18 19  1  0  0  0  0
 19 20  1  0  0  0  0
 20 21  2  0  0  0  0
 23 22  1  0  0  0  0
 24 22  2  0  0  0  0
 25 23  2  0  0  0  0
 26 24  1  0  0  0  0
 27 25  1  0  0  0  0
 27 26  2  0  0  0  0
 21 22  1  0  0  0  0
 27 28  1  0  0  0  0
 20 29  1  4  0  0  0
 14 30  1  4  0  0  0
M  END
> <ID>
CHEBI:73188

> <NAME>
6beta-({5-[(p-aminophenyl)imino]pentylidene}amino)penicillanic acid

> <DEFINITION>
Penicillanic acid carrying a (p-aminophenyl)imino]pentylidene}amino substituent at the 6β position. It has been used as a hapten in the production of a generic monoclonal antibody for determining penicillin residues in milk.

> <STAR>
3

> <SYNONYM>
hapten PAPA; hapten 1 PAPA; 6-[(p-hydroxybenzylidene)amino]penicillanic acid; (2S,5R,6R)-6-({5-[(4-aminophenyl)imino]pentylidene}amino)-3,3-dimethyl-7-oxo-4-thia-1-azabicyclo[3.2.0]heptane-2-carboxylic acid

> <IUPAC_NAME>
6beta-({5-[(4-aminophenyl)imino]pentylidene}amino)-2,2-dimethylpenam-3alpha-carboxylic acid

> <FORMULA>
C19H24N4O3S

> <MASS>
388.48400

> <MONOISOTOPIC_MASS>
388.15691

> <CHARGE>
0

> <SMILES>
[H]C(CCCC([H])=Nc1ccc(N)cc1)=N[C@@H]1C(=O)N2[C@@H](C(O)=O)C(C)(C)S[C@]12[H]

> <INCHI>
InChI=1S/C19H24N4O3S/c1-19(2)15(18(25)26)23-16(24)14(17(23)27-19)22-11-5-3-4-10-21-13-8-6-12(20)7-9-13/h6-11,14-15,17H,3-5,20H2,1-2H3,(H,25,26)/t14-,15+,17-/m1/s1

> <INCHIKEY>
BHEVULAQHTXCQV-HLLBOEOZSA-N

> <PUBMED_CITATION>
23452214

$$$$

Marvin  02130916052D          

 30 33  0  0  0  0            999 V2000
    0.7145    0.4125    0.0000 C   0  0  2  0  0  0  0  0  0  0  0  0
    0.7145   -0.4125    0.0000 C   0  0  0  0  0  0  0  0  0  0  0  0
    1.5395   -0.4125    0.0000 N   0  0  0  0  0  0  0  0  0  0  0  0
    1.5395    0.4125    0.0000 C   0  0  2  0  0  0  0  0  0  0  0  0
    2.3241   -0.6674    0.0000 C   0  0  2  0  0  0  0  0  0  0  0  0
    2.8090    0.0000    0.0000 C   0  0  0  0  0  0  0  0  0  0  0  0
    2.3241    0.6674    0.0000 S   0  0  0  0  0  0  0  0  0  0  0  0
    3.5278   -0.4050    0.0000 C   0  0  0  0  0  0  0  0  0  0  0  0
    3.5278    0.4050    0.0000 C   0  0  0  0  0  0  0  0  0  0  0  0
    2.5790   -1.4521    0.0000 C   0  0  0  0  0  0  0  0  0  0  0  0
    3.3860   -1.6236    0.0000 O   0  0  0  0  0  0  0  0  0  0  0  0
    2.0270   -2.0652    0.0000 O   0  0  0  0  0  0  0  0  0  0  0  0
    0.0000    0.8250    0.0000 N   0  0  0  0  0  0  0  0  0  0  0  0
   -0.7145    0.4125    0.0000 C   0  0  0  0  0  0  0  0  0  0  0  0
   -0.7145   -0.4125    0.0000 O   0  0  0  0  0  0  0  0  0  0  0  0
   -1.4289    0.8250    0.0000 C   0  0  0  0  0  0  0  0  0  0  0  0
   -1.4289    1.6500    0.0000 C   0  0  0  0  0  0  0  0  0  0  0  0
   -2.1434    2.0625    0.0000 C   0  0  0  0  0  0  0  0  0  0  0  0
   -2.8579    1.6500    0.0000 C   0  0  0  0  0  0  0  0  0  0  0  0
   -2.8579    0.8250    0.0000 C   0  0  0  0  0  0  0  0  0  0  0  0
   -2.1434    0.4125    0.0000 C   0  0  0  0  0  0  0  0  0  0  0  0
   -3.5724    0.4125    0.0000 C   0  0  0  0  0  0  0  0  0  0  0  0
   -3.5724   -0.4125    0.0000 C   0  0  0  0  0  0  0  0  0  0  0  0
   -2.8579   -0.8250    0.0000 C   0  0  0  0  0  0  0  0  0  0  0  0
   -2.1434   -0.4125    0.0000 C   0  0  0  0  0  0  0  0  0  0  0  0
   -0.7145    2.0625    0.0000 O   0  0  0  0  0  0  0  0  0  0  0  0
   -0.7145    2.8875    0.0000 C   0  0  0  0  0  0  0  0  0  0  0  0
    0.0000    3.3000    0.0000 C   0  0  0  0  0  0  0  0  0  0  0  0
    1.5395    1.2375    0.0000 H   0  0  0  0  0  0  0  0  0  0  0  0
    0.1311   -0.9959    0.0000 O   0  0  0  0  0  0  0  0  0  0  0  0
  2  3  1  0  0  0  0
  4  3  1  0  0  0  0
  4  1  1  0  0  0  0
  3  5  1  0  0  0  0
  5  6  1  0  0  0  0
  6  7  1  0  0  0  0
  4  7  1  0  0  0  0
  6  8  1  0  0  0  0
  6  9  1  0  0  0  0
  5 10  1  6  0  0  0
 10 11  1  0  0  0  0
 10 12  2  0  0  0  0
 14 16  1  0  0  0  0
 16 17  1  0  0  0  0
 17 18  2  0  0  0  0
 18 19  1  0  0  0  0
 19 20  2  0  0  0  0
 20 21  1  0  0  0  0
 16 21  2  0  0  0  0
 20 22  1  0  0  0  0
 22 23  2  0  0  0  0
 23 24  1  0  0  0  0
 24 25  2  0  0  0  0
 21 25  1  0  0  0  0
 17 26  1  0  0  0  0
 26 27  1  0  0  0  0
 27 28  1  0  0  0  0
  4 29  1  6  0  0  0
 13 14  1  0  0  0  0
  1 13  1  1  0  0  0
  1  2  1  0  0  0  0
 14 15  2  0  0  0  0
  2 30  2  0  0  0  0
M  END
> <ID>
CHEBI:7447

> <NAME>
nafcillin

> <DEFINITION>
A penicillin in which the substituent at position 6 of the penam ring is a (2-ethoxy-1-naphthoyl)amino group.

> <STAR>
3

> <SECONDARY_ID>
CHEBI:44256

> <SYNONYM>
naphcillin; 6-(2-ethoxy-1-naphthamido)penicillanic acid; (2S,5R,6R)-6-{[(2-ethoxynaphthalen-1-yl)carbonyl]amino}-3,3-dimethyl-7-oxo-4-thia-1-azabicyclo[3.2.0]heptane-2-carboxylic acid; (2S,5R,6R)-6-[(2-ethoxynaphthalene-1-carbonyl)amino]-3,3-dimethyl-7-oxo-4-thia-1-azabicyclo[3.2.0]heptane-2-carboxylic acid; (2S,5R,6R)-6-[(2-ethoxy-1-naphthoyl)amino]-3,3-dimethyl-7-oxo-4-thia-1-azabicyclo[3.2.0]heptane-2-carboxylic acid; (2-ethoxy-1-naphthyl)penicillin; (2-ethoxy-1-naphthalenyl)penicillin

> <IUPAC_NAME>
6beta-(2-ethoxynaphthalene-1-carboxamido)-2,2-dimethylpenam-3alpha-carboxylic acid

> <INN>
nafcillinum; nafcilline; nafcillin; nafcilina

> <FORMULA>
C21H22N2O5S

> <MASS>
414.47500

> <MONOISOTOPIC_MASS>
414.12494

> <CHARGE>
0

> <SMILES>
[H][C@]12SC(C)(C)[C@@H](N1C(=O)[C@H]2NC(=O)c1c(OCC)ccc2ccccc12)C(O)=O

> <INCHI>
InChI=1S/C21H22N2O5S/c1-4-28-13-10-9-11-7-5-6-8-12(11)14(13)17(24)22-15-18(25)23-16(20(26)27)21(2,3)29-19(15)23/h5-10,15-16,19H,4H2,1-3H3,(H,22,24)(H,26,27)/t15-,16+,19-/m1/s1

> <INCHIKEY>
GPXLMGHLHQJAGZ-JTDSTZFVSA-N

> <BEILSTEIN_REGISTRY_NUMBER>
5405727

> <CAS_REGISTRY_NUMBER>
147-52-4

> <REAXYS_REGISTRY_NUMBER>
5405727

> <CHEMIDPLUS>
147-52-4

> <DRUGBANK_ACCESSION>
DB00607

> <KEGG_COMPOUND_ACCESSION>
C07250

> <KEGG_DRUG_ACCESSION>
D08242

> <LINCS_ACCESSION>
LSM-2402

> <WIKIPEDIA_ACCESSION>
Nafcillin

> <PUBMED_CITATION>
29017833

$$$$

Marvin  09171318402D          

 18 19  0  0  0  0            999 V2000
    8.7188   -5.2759    0.0000 C   0  0  0  0  0  0  0  0  0  0  0  0
    8.0043   -5.6884    0.0000 C   0  0  0  0  0  0  0  0  0  0  0  0
    8.0043   -6.5134    0.0000 C   0  0  0  0  0  0  0  0  0  0  0  0
    8.7188   -6.9258    0.0000 C   0  0  0  0  0  0  0  0  0  0  0  0
    9.4332   -6.5134    0.0000 C   0  0  0  0  0  0  0  0  0  0  0  0
    9.4332   -5.6884    0.0000 C   0  0  0  0  0  0  0  0  0  0  0  0
   10.1477   -5.2759    0.0000 N   0  0  0  0  0  0  0  0  0  0  0  0
   10.8621   -5.6884    0.0000 N   0  0  0  0  0  0  0  0  0  0  0  0
   11.5765   -5.2759    0.0000 C   0  0  0  0  0  0  0  0  0  0  0  0
   12.2910   -4.0384    0.0000 C   0  0  0  0  0  0  0  0  0  0  0  0
   11.5765   -4.4509    0.0000 C   0  0  0  0  0  0  0  0  0  0  0  0
   12.2910   -5.6884    0.0000 C   0  0  0  0  0  0  0  0  0  0  0  0
   13.0055   -5.2759    0.0000 C   0  0  0  0  0  0  0  0  0  0  0  0
   13.0055   -4.4509    0.0000 C   0  0  0  0  0  0  0  0  0  0  0  0
   13.7199   -4.0384    0.0000 N   0  0  0  0  0  0  0  0  0  0  0  0
    7.2898   -6.9259    0.0000 N   0  3  0  0  0  0  0  0  0  0  0  0
    6.5753   -6.5134    0.0000 O   0  5  0  0  0  0  0  0  0  0  0  0
    7.2898   -7.7509    0.0000 O   0  0  0  0  0  0  0  0  0  0  0  0
  1  2  2  0  0  0  0
  1  6  1  0  0  0  0
  2  3  1  0  0  0  0
  3  4  2  0  0  0  0
  4  5  1  0  0  0  0
  5  6  2  0  0  0  0
  6  7  1  0  0  0  0
  7  8  2  0  0  0  0
  8  9  1  4  0  0  0
 11  9  2  0  0  0  0
  9 12  1  0  0  0  0
 10 11  1  0  0  0  0
 10 14  2  0  0  0  0
 12 13  2  0  0  0  0
 13 14  1  0  0  0  0
 14 15  1  0  0  0  0
 17 16  1  0  0  0  0
 18 16  2  0  0  0  0
  3 16  1  0  0  0  0
M  CHG  2  16   1  17  -1
M  END
> <ID>
CHEBI:75648

> <NAME>
4-(4-nitrophenylazo)aniline

> <DEFINITION>
Azobenzene substituted at the phenyl 4-positions by an amino and a nitro group.

> <STAR>
3

> <SYNONYM>
DO3; Disperse orange 3; 4-[(4-nitrophenyl)azo]benzenamine; 4-[(4-Nitrophenyl)azo]benzenamin; 4-(4-nitroazophenyl)aniline; 4-(4'-Nitroazophenyl)anilin; 4-(2-(4-nitrophenyl)diazenyl)benzenamine; 4-((nitrophenyl)azo)benzeneamine; 4-((4-nitrophenyl)diazenyl)aniline; 1-(4'-aminophenylazo)-4-nitrobenzene

> <IUPAC_NAME>
4-[(4-nitrophenyl)diazenyl]aniline

> <FORMULA>
C12H10N4O2

> <MASS>
242.23340

> <MONOISOTOPIC_MASS>
242.08038

> <CHARGE>
0

> <SMILES>
Nc1ccc(cc1)N=Nc1ccc(cc1)[N+]([O-])=O

> <INCHI>
InChI=1S/C12H10N4O2/c13-9-1-3-10(4-2-9)14-15-11-5-7-12(8-6-11)16(17)18/h1-8H,13H2

> <INCHIKEY>
UNBOSJFEZZJZLR-UHFFFAOYSA-N

> <CAS_REGISTRY_NUMBER>
730-40-5

> <REAXYS_REGISTRY_NUMBER>
749369

> <CHEMIDPLUS>
730-40-5

> <NIST_CHEMISTRY_WEBBOOK>
730-40-5

> <PUBMED_CITATION>
12165928; 12868964; 14521554; 15346963; 16285649; 17358356; 17598023; 18521148; 18844695; 20119992; 20137739; 20585758; 22349058; 22370564; 22694126; 22964419; 23046011; 23289879; 23827588; 2944731; 3743040; 6713849; 7214891; 7821010; 9062744

$$$$

Marvin  03090711192D          

 29 32  0  0  1  0            999 V2000
    0.7145   -1.2375    0.0000 C   0  0  0  0  0  0  0  0  0  0  0  0
    1.5395   -1.2375    0.0000 N   0  0  0  0  0  0  0  0  0  0  0  0
    1.5395   -0.4125    0.0000 C   0  0  2  0  0  0  0  0  0  0  0  0
    2.3242   -1.4925    0.0000 C   0  0  1  0  0  0  0  0  0  0  0  0
    2.3242   -0.1576    0.0000 S   0  0  0  0  0  0  0  0  0  0  0  0
    2.5791   -2.2771    0.0000 C   0  0  0  0  0  0  0  0  0  0  0  0
    3.3861   -2.4486    0.0000 O   0  0  0  0  0  0  0  0  0  0  0  0
    2.0271   -2.8902    0.0000 O   0  0  0  0  0  0  0  0  0  0  0  0
    1.5634    0.4121    0.0000 H   0  0  0  0  0  0  0  0  0  0  0  0
    0.1312   -1.8209    0.0000 O   0  0  0  0  0  0  0  0  0  0  0  0
   -0.7144   -0.4125    0.0000 C   0  0  0  0  0  0  0  0  0  0  0  0
   -0.7144   -1.2375    0.0000 O   0  0  0  0  0  0  0  0  0  0  0  0
   -0.7144    1.2375    0.0000 C   0  0  0  0  0  0  0  0  0  0  0  0
   -0.7144    2.0625    0.0000 C   0  0  0  0  0  0  0  0  0  0  0  0
    0.0000    2.4750    0.0000 C   0  0  0  0  0  0  0  0  0  0  0  0
    0.7145    2.0625    0.0000 C   0  0  0  0  0  0  0  0  0  0  0  0
    0.7145    1.2375    0.0000 C   0  0  0  0  0  0  0  0  0  0  0  0
    0.0000    0.8250    0.0000 C   0  0  0  0  0  0  0  0  0  0  0  0
   -1.4289    0.0000    0.0000 C   0  0  0  0  0  0  0  0  0  0  0  0
   -2.2135   -0.2549    0.0000 C   0  0  0  0  0  0  0  0  0  0  0  0
   -2.6985    0.4125    0.0000 O   0  0  0  0  0  0  0  0  0  0  0  0
   -2.2135    1.0799    0.0000 N   0  0  0  0  0  0  0  0  0  0  0  0
   -1.4289    0.8250    0.0000 C   0  0  0  0  0  0  0  0  0  0  0  0
   -2.4685   -1.0396    0.0000 C   0  0  0  0  0  0  0  0  0  0  0  0
    0.0000    0.0000    0.0000 N   0  0  0  0  0  0  0  0  0  0  0  0
    0.7145   -0.4125    0.0000 C   0  0  2  0  0  0  0  0  0  0  0  0
    3.5236   -0.4125    0.0000 C   0  0  0  0  0  0  0  0  0  0  0  0
    2.8091   -0.8250    0.0000 C   0  0  3  0  0  0  0  0  0  0  0  0
    3.5236   -1.2375    0.0000 C   0  0  0  0  0  0  0  0  0  0  0  0
 26  1  1  0  0  0  0
  1  2  1  0  0  0  0
  2  3  1  0  0  0  0
 26  3  1  0  0  0  0
  2  4  1  0  0  0  0
  4 28  1  0  0  0  0
 28  5  1  0  0  0  0
  3  5  1  0  0  0  0
  4  6  1  6  0  0  0
  6  7  1  0  0  0  0
  6  8  2  0  0  0  0
  3  9  1  6  0  0  0
  1 10  2  0  0  0  0
 25 11  1  0  0  0  0
 11 12  2  0  0  0  0
 11 19  1  0  0  0  0
 23 13  1  0  0  0  0
 13 14  2  0  0  0  0
 13 18  1  0  0  0  0
 14 15  1  0  0  0  0
 15 16  2  0  0  0  0
 16 17  1  0  0  0  0
 17 18  2  0  0  0  0
 19 20  2  0  0  0  0
 20 21  1  0  0  0  0
 20 24  1  0  0  0  0
 21 22  1  0  0  0  0
 22 23  2  0  0  0  0
 19 23  1  0  0  0  0
 26 25  1  1  0  0  0
 28 27  1  0  0  0  0
 28 29  1  0  0  0  0
M  END
> <ID>
CHEBI:7809

> <NAME>
oxacillin

> <DEFINITION>
A penicillin antibiotic carrying a 5-methyl-3-phenylisoxazole-4-carboxamide group at position 6β.

> <STAR>
3

> <SYNONYM>
oxazocillin; Oxacillin; 6beta-(5-methyl-3-phenylisoxazol-4-yl)penicillanic acid; 5-methyl-3-phenyl-4-isoxazolyl-penicillin; (5-methyl-3-phenyl-4-isoxazolyl)penicillin; (2S,5R,6R)-3,3-dimethyl-6-{[(5-methyl-3-phenylisoxazol-4-yl)carbonyl]amino}-7-oxo-4-thia-1-azabicyclo[3.2.0]heptane-2-carboxylic acid

> <IUPAC_NAME>
2,2-dimethyl-6beta-(5-methyl-3-phenyl-1,2-oxazole-4-carboxamido)penam-3alpha-carboxylic acid

> <FORMULA>
C19H19N3O5S

> <MASS>
401.43600

> <MONOISOTOPIC_MASS>
401.10454

> <CHARGE>
0

> <SMILES>
[H][C@]12SC(C)(C)[C@@H](N1C(=O)[C@H]2NC(=O)c1c(C)onc1-c1ccccc1)C(O)=O

> <INCHI>
InChI=1S/C19H19N3O5S/c1-9-11(12(21-27-9)10-7-5-4-6-8-10)15(23)20-13-16(24)22-14(18(25)26)19(2,3)28-17(13)22/h4-8,13-14,17H,1-3H3,(H,20,23)(H,25,26)/t13-,14+,17-/m1/s1

> <INCHIKEY>
UWYHMGVUTGAWSP-JKIFEVAISA-N

> <BEILSTEIN_REGISTRY_NUMBER>
1093589

> <CAS_REGISTRY_NUMBER>
66-79-5

> <REAXYS_REGISTRY_NUMBER>
1093589

> <CHEMIDPLUS>
66-79-5

> <DRUGBANK_ACCESSION>
DB00713

> <HMDB_ACCESSION>
HMDB0014851

> <KEGG_COMPOUND_ACCESSION>
C07334

> <KEGG_DRUG_ACCESSION>
D08307

> <LINCS_ACCESSION>
LSM-6005

> <WIKIPEDIA_ACCESSION>
Oxacillin

> <PUBMED_CITATION>
14010809; 20407237; 24295979; 24936596; 29017833; 8566082

$$$$

Marvin  01121216132D          

 19 21  0  0  0  0            999 V2000
   10.5001   -7.8016    0.0000 C   0  0  0  0  0  0  0  0  0  0  0  0
    9.9619   -7.1391    0.0000 C   0  0  0  0  0  0  0  0  0  0  0  0
   10.1689   -6.3110    0.0000 C   0  0  0  0  0  0  0  0  0  0  0  0
   10.9142   -5.9798    0.0000 N   0  0  0  0  0  0  0  0  0  0  0  0
   11.3282   -7.8016    0.0000 C   0  0  0  0  0  0  0  0  0  0  0  0
   11.6595   -6.3524    0.0000 C   0  0  0  0  0  0  0  0  0  0  0  0
   11.8251   -7.1391    0.0000 C   0  0  0  0  0  0  0  0  0  0  0  0
    9.5892   -5.7314    0.0000 C   0  0  0  0  0  0  0  0  0  0  0  0
    8.8025   -5.9798    0.0000 C   0  0  0  0  0  0  0  0  0  0  0  0
    8.5955   -6.7664    0.0000 C   0  0  0  0  0  0  0  0  0  0  0  0
    9.1752   -7.3461    0.0000 C   0  0  0  0  0  0  0  0  0  0  0  0
   12.6118   -7.4290    0.0000 C   0  0  0  0  0  0  0  0  0  0  0  0
   13.2329   -6.8493    0.0000 C   0  0  0  0  0  0  0  0  0  0  0  0
   13.0673   -6.0626    0.0000 C   0  0  0  0  0  0  0  0  0  0  0  0
   12.2805   -5.8142    0.0000 C   0  0  0  0  0  0  0  0  0  0  0  0
   10.9142   -5.1517    0.0000 C   0  0  0  0  0  0  0  0  0  0  0  0
   11.6181   -4.7791    0.0000 N   0  0  0  0  0  0  0  0  0  0  0  0
   10.0447   -8.5055    0.0000 O   0  0  0  0  0  0  0  0  0  0  0  0
   10.1689   -4.7377    0.0000 O   0  0  0  0  0  0  0  0  0  0  0  0
  3  4  1  0  0  0  0
  1  5  1  0  0  0  0
  4  6  1  0  0  0  0
  2  3  1  0  0  0  0
  5  7  1  0  0  0  0
  1  2  1  0  0  0  0
  6  7  1  0  0  0  0
  3  8  2  0  0  0  0
  8  9  1  0  0  0  0
  9 10  2  0  0  0  0
 10 11  1  0  0  0  0
  2 11  2  0  0  0  0
  7 12  2  0  0  0  0
 12 13  1  0  0  0  0
 13 14  2  0  0  0  0
 14 15  1  0  0  0  0
  6 15  2  0  0  0  0
  4 16  1  0  0  0  0
 16 17  1  0  0  0  0
  1 18  2  0  0  0  0
 16 19  2  0  0  0  0
M  END
> <ID>
CHEBI:7824

> <NAME>
oxcarbazepine

> <DEFINITION>
A dibenzoazepine derivative, having a carbamoyl group at the ring nitrogen, substituted with an oxo group at C-4 of the azepeine ring which is also hydrogenated at C-4 and C-5. It is a anticholinergic anticonvulsant and mood stabilizing drug, used primarily in the treatment of epilepsy.

> <STAR>
3

> <SYNONYM>
Oxcarbazepine; 10,11-Dihydro-10-oxo-5H-dibenz(b,f)azepine-5-carboxamide

> <IUPAC_NAME>
10-oxo-10,11-dihydro-5H-dibenzo[b,f]azepine-5-carboxamide

> <INN>
oxcarbazepinum; oxcarbazepine; oxcarbazepina

> <FORMULA>
C15H12N2O2

> <MASS>
252.26800

> <MONOISOTOPIC_MASS>
252.08988

> <CHARGE>
0

> <SMILES>
NC(=O)N1c2ccccc2CC(=O)c2ccccc12

> <INCHI>
InChI=1S/C15H12N2O2/c16-15(19)17-12-7-3-1-5-10(12)9-14(18)11-6-2-4-8-13(11)17/h1-8H,9H2,(H2,16,19)

> <INCHIKEY>
CTRLABGOLIVAIY-UHFFFAOYSA-N

> <CAS_REGISTRY_NUMBER>
28721-07-5

> <CHEMIDPLUS>
28721-07-5

> <KEGG_COMPOUND_ACCESSION>
C07492

> <KEGG_DRUG_ACCESSION>
D00533

> <LINCS_ACCESSION>
LSM-5219

> <PUBMED_CITATION>
21924464

$$$$

Marvin  11050916052D          

 21 23  0  0  1  0            999 V2000
    9.1181   -8.0649    0.0000 C   0  0  0  0  0  0  0  0  0  0  0  0
    9.1037   -9.1198    0.0000 C   0  0  1  0  0  0  0  0  0  0  0  0
    8.4035   -7.6524    0.0000 C   0  0  0  0  0  0  0  0  0  0  0  0
    8.3892   -9.5323    0.0000 C   0  0  1  0  0  0  0  0  0  0  0  0
    7.6891   -8.0649    0.0000 C   0  0  0  0  0  0  0  0  0  0  0  0
    7.6747   -9.1198    0.0000 C   0  0  0  0  0  0  0  0  0  0  0  0
   10.5327   -8.0936    0.0000 C   0  0  0  0  0  0  0  0  0  0  0  0
   10.5327   -9.1198    0.0000 C   0  0  2  0  0  0  0  0  0  0  0  0
    9.8325   -7.6524    0.0000 C   0  0  0  0  0  0  0  0  0  0  0  0
    9.8182   -9.5323    0.0000 C   0  0  2  0  0  0  0  0  0  0  0  0
   11.1457   -9.6718    0.0000 C   0  0  0  0  0  0  0  0  0  0  0  0
   10.8102  -10.4256    0.0000 C   0  0  0  0  0  0  0  0  0  0  0  0
    9.9897  -10.3393    0.0000 O   0  0  0  0  0  0  0  0  0  0  0  0
   11.2227  -11.1400    0.0000 O   0  0  0  0  0  0  0  0  0  0  0  0
   11.9528   -9.5004    0.0000 C   0  0  0  0  0  0  0  0  0  0  0  0
    9.1036   -9.9448    0.0000 O   0  0  0  0  0  0  0  0  0  0  0  0
   11.2864   -8.7842    0.0000 H   0  0  0  0  0  0  0  0  0  0  0  0
    9.8349   -8.6132    0.0000 H   0  0  0  0  0  0  0  0  0  0  0  0
    7.9121  -10.1088    0.0000 C   0  0  0  0  0  0  0  0  0  0  0  0
    9.4361   -8.4831    0.0000 H   0  0  0  0  0  0  0  0  0  0  0  0
    8.9192   -8.7084    0.0000 C   0  0  0  0  0  0  0  0  0  0  0  0
  3  1  2  0  0  0  0
  4  2  1  0  0  0  0
  5  3  1  0  0  0  0
  6  4  1  0  0  0  0
  9  7  1  0  0  0  0
  1  9  1  0  0  0  0
  2 10  1  0  0  0  0
 11  8  1  0  0  0  0
 10  8  1  0  0  0  0
 12 11  1  0  0  0  0
 13 10  1  0  0  0  0
 13 12  1  0  0  0  0
 12 14  2  0  0  0  0
 11 15  2  0  0  0  0
  2 16  1  0  0  0  0
 16  4  1  0  0  0  0
  8 17  1  6  0  0  0
 10 18  1  1  0  0  0
  4 19  1  1  0  0  0
  2 20  1  6  0  0  0
  1 21  1  0  0  0  0
  6  5  1  0  0  0  0
  8  7  1  0  0  0  0
M  END
> <ID>
CHEBI:7939

> <NAME>
parthenolide

> <DEFINITION>
A sesquiterpene lactone and active principle of Feverfew (Tanacetum parthenium).

> <STAR>
3

> <SYNONYM>
Parthenolide; parthenolide; 4,5-alpha-Epoxy-6-beta-hydroxygermacra-1(10),11(13)-dien-12-oic acid gamma-lactone; (-)-Parthenolide

> <IUPAC_NAME>
(1aR,4E,7aS,10aS,10bR)-1a,5-dimethyl-8-methylidene-2,3,6,7,7a,8,10a,10b-octahydrooxireno[9,10]cyclodeca[1,2-b]furan-9(1aH)-one

> <FORMULA>
C15H20O3

> <MASS>
248.31750

> <MONOISOTOPIC_MASS>
248.14124

> <CHARGE>
0

> <SMILES>
[H][C@@]12CC\C(C)=C\CC[C@@]3(C)O[C@]3([H])[C@@]1([H])OC(=O)C2=C

> <INCHI>
InChI=1S/C15H20O3/c1-9-5-4-8-15(3)13(18-15)12-11(7-6-9)10(2)14(16)17-12/h5,11-13H,2,4,6-8H2,1,3H3/b9-5+/t11-,12-,13+,15+/m0/s1

> <INCHIKEY>
KTEXNACQROZXEV-PVLRGYAZSA-N

> <BEILSTEIN_REGISTRY_NUMBER>
3550011

> <CAS_REGISTRY_NUMBER>
20554-84-1

> <REAXYS_REGISTRY_NUMBER>
3550011

> <CHEMIDPLUS>
20554-84-1

> <KEGG_COMPOUND_ACCESSION>
C07609

> <KNAPSACK_ACCESSION>
C00003345

> <LIPID_MAPS_INSTANCE_ACCESSION>
LMPR0103090002

> <WIKIPEDIA_ACCESSION>
Parthenolide

> <PUBMED_CITATION>
11410248; 11837788; 11961112; 12417429; 12628675; 14501955; 15501437; 15616293; 15987517; 16778086; 17051330; 17200339; 17986299; 19201992; 19555300; 19949351; 22688575; 23065294; 23192276; 23264600; 23688583; 23746953; 23792430; 23797801; 23876538; 23898080; 23933184

$$$$

Marvin  01261110442D          

  9  8  0  0  1  0            999 V2000
    0.0000    0.0000    0.0000 C   0  0  1  0  0  0  0  0  0  0  0  0
    0.7144    0.4125    0.0000 C   0  0  0  0  0  0  0  0  0  0  0  0
   -0.7145    0.4125    0.0000 C   0  0  0  0  0  0  0  0  0  0  0  0
    1.4289    0.0000    0.0000 O   0  0  0  0  0  0  0  0  0  0  0  0
    0.0000   -0.8250    0.0000 N   0  0  0  0  0  0  0  0  0  0  0  0
   -0.7145    1.2375    0.0000 S   0  0  0  0  0  0  0  0  0  0  0  0
    0.7144    1.2375    0.0000 O   0  0  0  0  0  0  0  0  0  0  0  0
   -1.4290    0.0000    0.0000 C   0  0  0  0  0  0  0  0  0  0  0  0
   -1.4290    0.8250    0.0000 C   0  0  0  0  0  0  0  0  0  0  0  0
  2  1  1  0  0  0  0
  3  1  1  0  0  0  0
  1  5  1  6  0  0  0
  4  2  1  0  0  0  0
  7  2  2  0  0  0  0
  6  3  1  0  0  0  0
  8  3  1  0  0  0  0
  3  9  1  0  0  0  0
M  END
> <ID>
CHEBI:7959

> <NAME>
D-penicillamine

> <DEFINITION>
An optically active form of penicillamine having D-configuration. Pharmaceutical form (L-form is toxic) of chelating agent used to treat heavy metal poisoning.

> <STAR>
3

> <SECONDARY_ID>
CHEBI:469179

> <SYNONYM>
PA; D-beta,beta-dimethylcysteine; D-(-)-penicillamine; 3-mercapto-D-valine; (S)-3,3-dimethylcysteine; (S)-2-amino-3-mercapto-3-methylbutanoic acid; (-)-penicillamine

> <IUPAC_NAME>
3-sulfanyl-D-valine; (2S)-2-amino-3-methyl-3-sulfanylbutanoic acid

> <INN>
penicillaminum; penicillamine; penicillamine; penicilamina

> <BRAND_NAME>
Depen; D-Penamine; Cuprimine

> <FORMULA>
C5H11NO2S

> <MASS>
149.21100

> <MONOISOTOPIC_MASS>
149.05105

> <CHARGE>
0

> <SMILES>
CC(C)(S)[C@@H](N)C(O)=O

> <INCHI>
InChI=1S/C5H11NO2S/c1-5(2,9)3(6)4(7)8/h3,9H,6H2,1-2H3,(H,7,8)/t3-/m0/s1

> <INCHIKEY>
VVNCNSJFMMFHPL-VKHMYHEASA-N

> <BEILSTEIN_REGISTRY_NUMBER>
1722375

> <CAS_REGISTRY_NUMBER>
52-67-5

> <REAXYS_REGISTRY_NUMBER>
1722375

> <CHEMIDPLUS>
52-67-5

> <DRUGBANK_ACCESSION>
DB00859

> <HMDB_ACCESSION>
HMDB0014997

> <KEGG_COMPOUND_ACCESSION>
C07418

> <KEGG_DRUG_ACCESSION>
D00496

> <NIST_CHEMISTRY_WEBBOOK>
52-67-5

> <PDBECHEM_ACCESSION>
LEI

> <WIKIPEDIA_ACCESSION>
Penicillamine

> <PUBMED_CITATION>
10408968; 13793949; 16736232; 1709917; 18570451; 19904729; 21989991; 22076732; 22151785; 22169274; 22683336; 23200399; 23342748; 23375251; 2420897; 7196231

$$$$

ISISHOST03240423292D 1   1.00000     0.00000 12911

 25 27  0     1  0            999 V2000
    4.5733   -5.9599    0.0000 N   0  0  3  0  0  0           0  0  0
    4.5629   -5.1074    0.0000 C   0  0  1  0  0  0           0  0  0
    5.3222   -6.1013    0.0000 C   0  0  2  0  0  0           0  0  0
    3.7208   -5.9668    0.0000 C   0  0  0  0  0  0           0  0  0
    3.7139   -5.1143    0.0000 C   0  0  1  0  0  0           0  0  0
    5.2981   -4.7799    0.0000 S   0  0  0  0  0  0           0  0  0
    5.7816   -5.3978    0.0000 C   0  0  3  0  0  0           0  0  0
    5.6471   -6.8676    0.0000 C   0  0  0  0  0  0           0  0  0
    3.1373   -6.5572    0.0000 O   0  0  0  0  0  0           0  0  0
    3.1200   -4.5309    0.0000 N   0  0  0  0  0  0           0  0  0
    6.4264   -4.8799    0.0000 C   0  0  0  0  0  0           0  0  0
    6.4444   -5.8909    0.0000 C   0  0  0  0  0  0           0  0  0
    6.4685   -6.9676    0.0000 O   0  0  0  0  0  0           0  0  0
    5.1463   -7.5303    0.0000 O   0  0  0  0  0  0           0  0  0
    2.3235   -4.7557    0.0000 C   0  0  0  0  0  0           0  0  0
    1.7332   -4.1758    0.0000 C   0  0  0  0  0  0           0  0  0
    2.1125   -5.5599    0.0000 O   0  0  0  0  0  0           0  0  0
    0.9324   -4.3964    0.0000 C   0  0  0  0  0  0           0  0  0
    0.3420   -3.8171    0.0000 C   0  0  0  0  0  0           0  0  0
    0.7290   -5.1971    0.0000 C   0  0  0  0  0  0           0  0  0
   -0.4552   -4.0413    0.0000 C   0  0  0  0  0  0           0  0  0
   -0.0683   -5.4254    0.0000 C   0  0  0  0  0  0           0  0  0
   -0.6621   -4.8419    0.0000 C   0  0  0  0  0  0           0  0  0
    4.5595   -4.2757    0.0000 H   0  0  0  0  0  0           0  0  0
   -1.4625   -5.0542    0.0000 N   0  0  0  0  0  0           0  0  0
  1  2  1  0     0  0
  1  3  1  0     0  0
  1  4  1  0     0  0
  2  5  1  0     0  0
  2  6  1  0     0  0
  3  7  1  0     0  0
  3  8  1  6     0  0
  4  9  2  0     0  0
  5 10  1  1     0  0
  7 11  1  0     0  0
  7 12  1  0     0  0
  8 13  1  0     0  0
  8 14  2  0     0  0
 10 15  1  0     0  0
 15 16  1  0     0  0
 15 17  2  0     0  0
 16 18  1  0     0  0
 18 19  2  0     0  0
 18 20  1  0     0  0
 19 21  1  0     0  0
 20 22  2  0     0  0
 21 23  2  0     0  0
  4  5  1  0     0  0
  6  7  1  0     0  0
 22 23  1  0     0  0
  2 24  1  6     0  0
 23 25  1  0     0  0
M  END
> <ID>
CHEBI:7965

> <NAME>
Penicillin T

> <STAR>
2

> <SYNONYM>
Penicillin T

> <FORMULA>
C16H19N3O4S

> <MASS>
349.406

> <MONOISOTOPIC_MASS>
349.10963

> <CHARGE>
0

> <SMILES>
CC1(C)S[C@@H]2[C@H](NC(=O)Cc3ccc(N)cc3)C(=O)N2[C@H]1C(O)=O

> <INCHI>
InChI=1S/C16H19N3O4S/c1-16(2)12(15(22)23)19-13(21)11(14(19)24-16)18-10(20)7-8-3-5-9(17)6-4-8/h3-6,11-12,14H,7,17H2,1-2H3,(H,18,20)(H,22,23)/t11-,12+,14-/m1/s1

> <INCHIKEY>
STWKKPXWUYGWTR-MBNYWOFBSA-N

> <KEGG_COMPOUND_ACCESSION>
C11749

$$$$

Marvin  07110716512D          

 11 11  0  0  0  0            999 V2000
    0.7145   -0.4125    0.0000 C   0  0  0  0  0  0  0  0  0  0  0  0
    0.0000   -0.8250    0.0000 C   0  0  0  0  0  0  0  0  0  0  0  0
    0.7145    0.4125    0.0000 C   0  0  0  0  0  0  0  0  0  0  0  0
    0.0000    0.8250    0.0000 C   0  0  0  0  0  0  0  0  0  0  0  0
   -0.7145    0.4125    0.0000 C   0  0  0  0  0  0  0  0  0  0  0  0
   -0.7145   -0.4125    0.0000 C   0  0  0  0  0  0  0  0  0  0  0  0
    2.8579    0.8250    0.0000 C   0  0  0  0  0  0  0  0  0  0  0  0
    2.8579    1.6500    0.0000 O   0  0  0  0  0  0  0  0  0  0  0  0
    3.5724    0.4125    0.0000 O   0  0  0  0  0  0  0  0  0  0  0  0
    2.1434    0.4125    0.0000 C   0  0  0  0  0  0  0  0  0  0  0  0
    1.4289    0.8250    0.0000 O   0  0  0  0  0  0  0  0  0  0  0  0
  2  1  2  0  0  0  0
  1  3  1  0  0  0  0
  3 11  1  0  0  0  0
  3  4  2  0  0  0  0
  4  5  1  0  0  0  0
  2  6  1  0  0  0  0
  5  6  2  0  0  0  0
  8  7  2  0  0  0  0
  9  7  1  0  0  0  0
 10  7  1  0  0  0  0
 11 10  1  0  0  0  0
M  END
> <ID>
CHEBI:8075

> <NAME>
phenoxyacetic acid

> <DEFINITION>
A monocarboxylic acid that is the O-phenyl derivative of glycolic acid. A metabolite of 2-phenoxyethanol, it is used in the manufacture of pharmaceuticals, pesticides, fungicides and dyes.

> <STAR>
3

> <SYNONYM>
POA; phenoxyethanoic acid; Phenoxyessigsaeure; Phenoxyacetic acid; Phenoxyacetate; phenoxacetic acid; Glycol acid phenyl ether

> <IUPAC_NAME>
phenoxyacetic acid

> <FORMULA>
C8H8O3

> <MASS>
152.14732

> <MONOISOTOPIC_MASS>
152.04734

> <CHARGE>
0

> <SMILES>
OC(=O)COc1ccccc1

> <INCHI>
InChI=1S/C8H8O3/c9-8(10)6-11-7-4-2-1-3-5-7/h1-5H,6H2,(H,9,10)

> <INCHIKEY>
LCPDWSOZIOUXRV-UHFFFAOYSA-N

> <BEILSTEIN_REGISTRY_NUMBER>
907949

> <CAS_REGISTRY_NUMBER>
122-59-8

> <GMELIN_REGISTRY_NUMBER>
142730

> <REAXYS_REGISTRY_NUMBER>
907949

> <CHEMIDPLUS>
122-59-8

> <HMDB_ACCESSION>
HMDB0031609

> <KEGG_COMPOUND_ACCESSION>
C02181

> <NIST_CHEMISTRY_WEBBOOK>
122-59-8

> <PDBECHEM_ACCESSION>
06Y

> <PUBMED_CITATION>
14687482; 23838187; 26188115; 26452788

$$$$



22 23  0  0  1  0  0  0  0  0999 V2000
   28.6100  -16.8326    0.0000 C   0  0  0  0  0  0  0  0  0  0  0  0
   28.6100  -18.2374    0.0000 C   0  0  0  0  0  0  0  0  0  0  0  0
   30.0149  -18.2374    0.0000 N   0  0  0  0  0  0  0  0  0  0  0  0
   30.0149  -16.8326    0.0000 C   0  0  0  0  0  0  0  0  0  0  0  0
   31.3494  -18.6588    0.0000 C   0  0  0  0  0  0  0  0  0  0  0  0
   32.1922  -17.5349    0.0000 C   0  0  0  0  0  0  0  0  0  0  0  0
   31.3494  -16.4110    0.0000 S   0  0  0  0  0  0  0  0  0  0  0  0
   33.1757  -18.5183    0.0000 C   0  0  0  0  0  0  0  0  0  0  0  0
   33.1757  -16.5515    0.0000 C   0  0  0  0  0  0  0  0  0  0  0  0
   31.8411  -19.9933    0.0000 C   0  0  0  0  0  0  0  0  0  0  0  0
   33.2458  -19.9933    0.0000 O   0  0  0  0  0  0  0  0  0  0  0  0
   30.9981  -21.1171    0.0000 O   0  0  0  0  0  0  0  0  0  0  0  0
   30.0149  -15.4277    0.0000 H   0  0  0  0  0  0  0  0  0  0  0  0
   27.4159  -16.1301    0.0000 N   0  0  0  0  0  0  0  0  0  0  0  0
   26.2218  -16.8326    0.0000 C   0  0  0  0  0  0  0  0  0  0  0  0
   27.4159  -18.9397    0.0000 O   0  0  0  0  0  0  0  0  0  0  0  0
   26.2218  -18.2374    0.0000 O   0  0  0  0  0  0  0  0  0  0  0  0
   25.0023  -16.1350    0.0000 C   0  0  0  0  0  0  0  0  0  0  0  0
   23.8099  -16.8303    0.0000 C   0  0  0  0  0  0  0  0  0  0  0  0
   22.5876  -16.1000    0.0000 C   0  0  0  0  0  0  0  0  0  0  0  0
   21.3751  -16.8000    0.0000 C   0  0  0  0  0  0  0  0  0  0  0  0
   20.1627  -16.1000    0.0000 C   0  0  0  0  0  0  0  0  0  0  0  0
  1  2  1  0     0  0
  2  3  1  0     0  0
  3  4  1  0     0  0
  1  4  1  0     0  0
  3  5  1  0     0  0
  5  6  1  0     0  0
  6  7  1  0     0  0
  4  7  1  0     0  0
  6  8  1  0     0  0
  6  9  1  0     0  0
  5 10  1  6     0  0
 10 11  1  0     0  0
 10 12  2  0     0  0
  4 13  1  6     0  0
  1 14  1  1     0  0
 14 15  1  0     0  0
  2 16  2  0     0  0
 15 17  2  0     0  0
 15 18  1  0     0  0
 18 19  1  0     0  0
 19 20  2  0     0  0
 20 21  1  0     0  0
 21 22  1  0     0  0
M  END
> <ID>
CHEBI:81063

> <NAME>
Penicillin F

> <STAR>
2

> <SYNONYM>
2-Pentenylpenicillin

> <FORMULA>
C14H20N2O4S

> <MASS>
312.38500

> <MONOISOTOPIC_MASS>
312.11438

> <CHARGE>
0

> <SMILES>
CC\C=C\CC(=O)N[C@H]1[C@H]2SC(C)(C)[C@@H](N2C1=O)C(O)=O

> <INCHI>
InChI=1S/C14H20N2O4S/c1-4-5-6-7-8(17)15-9-11(18)16-10(13(19)20)14(2,3)21-12(9)16/h5-6,9-10,12H,4,7H2,1-3H3,(H,15,17)(H,19,20)/b6-5+/t9-,10+,12-/m1/s1

> <INCHIKEY>
QRLCJUNAKLMRGP-ZTWGYATJSA-N

> <CAS_REGISTRY_NUMBER>
118-53-6

> <KEGG_COMPOUND_ACCESSION>
C17402

$$$$



24 25  0  0  1  0  0  0  0  0999 V2000
   29.2255  -16.8241    0.0000 C   0  0  0  0  0  0  0  0  0  0  0  0
   29.2255  -18.2282    0.0000 C   0  0  0  0  0  0  0  0  0  0  0  0
   30.6297  -18.2282    0.0000 N   0  0  0  0  0  0  0  0  0  0  0  0
   30.6297  -16.8241    0.0000 C   0  0  0  0  0  0  0  0  0  0  0  0
   31.9635  -18.6494    0.0000 C   0  0  0  0  0  0  0  0  0  0  0  0
   32.8059  -17.5260    0.0000 C   0  0  0  0  0  0  0  0  0  0  0  0
   31.9635  -16.4027    0.0000 S   0  0  0  0  0  0  0  0  0  0  0  0
   33.7889  -18.5089    0.0000 C   0  0  0  0  0  0  0  0  0  0  0  0
   33.7889  -16.5431    0.0000 C   0  0  0  0  0  0  0  0  0  0  0  0
   32.4550  -19.9832    0.0000 C   0  0  0  0  0  0  0  0  0  0  0  0
   33.8590  -19.9832    0.0000 O   0  0  0  0  0  0  0  0  0  0  0  0
   31.6124  -21.1064    0.0000 O   0  0  0  0  0  0  0  0  0  0  0  0
   30.6297  -15.4199    0.0000 H   0  0  0  0  0  0  0  0  0  0  0  0
   28.0320  -16.1219    0.0000 N   0  0  0  0  0  0  0  0  0  0  0  0
   26.8385  -16.8241    0.0000 C   0  0  0  0  0  0  0  0  0  0  0  0
   28.0320  -18.9301    0.0000 O   0  0  0  0  0  0  0  0  0  0  0  0
   26.8385  -18.2282    0.0000 O   0  0  0  0  0  0  0  0  0  0  0  0
   25.6197  -16.1268    0.0000 C   0  0  0  0  0  0  0  0  0  0  0  0
   24.4279  -16.8218    0.0000 C   0  0  0  0  0  0  0  0  0  0  0  0
   23.2062  -16.0919    0.0000 C   0  0  0  0  0  0  0  0  0  0  0  0
   21.9943  -16.7915    0.0000 C   0  0  0  0  0  0  0  0  0  0  0  0
   20.7825  -16.0919    0.0000 C   0  0  0  0  0  0  0  0  0  0  0  0
   19.5776  -16.8000    0.0000 C   0  0  0  0  0  0  0  0  0  0  0  0
   18.3651  -16.1000    0.0000 C   0  0  0  0  0  0  0  0  0  0  0  0
  1  2  1  0     0  0
  2  3  1  0     0  0
  3  4  1  0     0  0
  1  4  1  0     0  0
  3  5  1  0     0  0
  5  6  1  0     0  0
  6  7  1  0     0  0
  4  7  1  0     0  0
  6  8  1  0     0  0
  6  9  1  0     0  0
  5 10  1  6     0  0
 10 11  1  0     0  0
 10 12  2  0     0  0
  4 13  1  6     0  0
  1 14  1  1     0  0
 14 15  1  0     0  0
  2 16  2  0     0  0
 15 17  2  0     0  0
 15 18  1  0     0  0
 18 19  1  0     0  0
 19 20  1  0     0  0
 20 21  1  0     0  0
 21 22  1  0     0  0
 22 23  1  0     0  0
 23 24  1  0     0  0
M  END
> <ID>
CHEBI:81064

> <NAME>
Penicillin K

> <STAR>
2

> <SYNONYM>
Penicillin A

> <FORMULA>
C16H26N2O4S

> <MASS>
342.45400

> <MONOISOTOPIC_MASS>
342.16133

> <CHARGE>
0

> <SMILES>
CCCCCCCC(=O)N[C@H]1[C@H]2SC(C)(C)[C@@H](N2C1=O)C(O)=O

> <INCHI>
InChI=1S/C16H26N2O4S/c1-4-5-6-7-8-9-10(19)17-11-13(20)18-12(15(21)22)16(2,3)23-14(11)18/h11-12,14H,4-9H2,1-3H3,(H,17,19)(H,21,22)/t11-,12+,14-/m1/s1

> <INCHIKEY>
XVASOOUVMJAZNJ-MBNYWOFBSA-N

> <CAS_REGISTRY_NUMBER>
525-97-3

> <KEGG_COMPOUND_ACCESSION>
C17403

$$$$



25 27  0  0  1  0  0  0  0  0999 V2000
   28.6100  -16.8326    0.0000 C   0  0  0  0  0  0  0  0  0  0  0  0
   28.6100  -18.2374    0.0000 C   0  0  0  0  0  0  0  0  0  0  0  0
   30.0149  -18.2374    0.0000 N   0  0  0  0  0  0  0  0  0  0  0  0
   30.0149  -16.8326    0.0000 C   0  0  0  0  0  0  0  0  0  0  0  0
   31.3494  -18.6588    0.0000 C   0  0  0  0  0  0  0  0  0  0  0  0
   32.1922  -17.5349    0.0000 C   0  0  0  0  0  0  0  0  0  0  0  0
   31.3494  -16.4110    0.0000 S   0  0  0  0  0  0  0  0  0  0  0  0
   33.1757  -18.5183    0.0000 C   0  0  0  0  0  0  0  0  0  0  0  0
   33.1757  -16.5515    0.0000 C   0  0  0  0  0  0  0  0  0  0  0  0
   31.8411  -19.9933    0.0000 C   0  0  0  0  0  0  0  0  0  0  0  0
   33.2458  -19.9933    0.0000 O   0  0  0  0  0  0  0  0  0  0  0  0
   30.9981  -21.1171    0.0000 O   0  0  0  0  0  0  0  0  0  0  0  0
   30.0149  -15.4277    0.0000 H   0  0  0  0  0  0  0  0  0  0  0  0
   27.4159  -16.1301    0.0000 N   0  0  0  0  0  0  0  0  0  0  0  0
   26.2218  -16.8326    0.0000 C   0  0  0  0  0  0  0  0  0  0  0  0
   27.4159  -18.9397    0.0000 O   0  0  0  0  0  0  0  0  0  0  0  0
   26.2218  -18.2374    0.0000 O   0  0  0  0  0  0  0  0  0  0  0  0
   25.0023  -16.1350    0.0000 C   0  0  0  0  0  0  0  0  0  0  0  0
   23.8099  -16.8303    0.0000 C   0  0  0  0  0  0  0  0  0  0  0  0
   22.5963  -16.1296    0.0000 C   0  0  0  0  0  0  0  0  0  0  0  0
   21.3828  -16.8303    0.0000 C   0  0  0  0  0  0  0  0  0  0  0  0
   21.3828  -18.2315    0.0000 C   0  0  0  0  0  0  0  0  0  0  0  0
   22.5963  -18.9321    0.0000 C   0  0  0  0  0  0  0  0  0  0  0  0
   23.8099  -18.2315    0.0000 C   0  0  0  0  0  0  0  0  0  0  0  0
   20.1602  -18.9378    0.0000 O   0  0  0  0  0  0  0  0  0  0  0  0
  1  2  1  0     0  0
  2  3  1  0     0  0
  3  4  1  0     0  0
  1  4  1  0     0  0
  3  5  1  0     0  0
  5  6  1  0     0  0
  6  7  1  0     0  0
  4  7  1  0     0  0
  6  8  1  0     0  0
  6  9  1  0     0  0
  5 10  1  6     0  0
 10 11  1  0     0  0
 10 12  2  0     0  0
  4 13  1  6     0  0
  1 14  1  1     0  0
 14 15  1  0     0  0
  2 16  2  0     0  0
 15 17  2  0     0  0
 15 18  1  0     0  0
 18 19  1  0     0  0
 19 20  2  0     0  0
 20 21  1  0     0  0
 21 22  2  0     0  0
 22 23  1  0     0  0
 23 24  2  0     0  0
 19 24  1  0     0  0
 22 25  1  0     0  0
M  END
> <ID>
CHEBI:81065

> <NAME>
Penicillin X

> <STAR>
2

> <FORMULA>
C16H18N2O5S

> <MASS>
350.39000

> <MONOISOTOPIC_MASS>
350.09364

> <CHARGE>
0

> <SMILES>
CC1(C)S[C@@H]2[C@H](NC(=O)Cc3ccc(O)cc3)C(=O)N2[C@H]1C(O)=O

> <INCHI>
InChI=1S/C16H18N2O5S/c1-16(2)12(15(22)23)18-13(21)11(14(18)24-16)17-10(20)7-8-3-5-9(19)6-4-8/h3-6,11-12,14,19H,7H2,1-2H3,(H,17,20)(H,22,23)/t11-,12+,14-/m1/s1

> <INCHIKEY>
AZCVBVRUYHKWHU-MBNYWOFBSA-N

> <CAS_REGISTRY_NUMBER>
525-91-7

> <KEGG_COMPOUND_ACCESSION>
C17404

$$$$

Marvin  01291014232D          

 19 21  0  0  0  0            999 V2000
    5.3363   -8.3334    0.0000 C   0  0  0  0  0  0  0  0  0  0  0  0
    5.0813   -7.5486    0.0000 N   0  0  0  0  0  0  0  0  0  0  0  0
    4.6755   -8.8190    0.0000 C   0  0  0  0  0  0  0  0  0  0  0  0
    4.2567   -7.5486    0.0000 C   0  0  0  0  0  0  0  0  0  0  0  0
    4.0061   -8.3345    0.0000 N   0  0  0  0  0  0  0  0  0  0  0  0
    6.0633   -8.2244    0.0000 O   0  0  0  0  0  0  0  0  0  0  0  0
    3.7715   -6.8795    0.0000 O   0  0  0  0  0  0  0  0  0  0  0  0
    4.0487   -9.3089    0.0000 C   0  0  0  0  0  0  0  0  0  0  0  0
    5.3593   -9.2670    0.0000 C   0  0  0  0  0  0  0  0  0  0  0  0
    4.2156  -10.1137    0.0000 C   0  0  0  0  0  0  0  0  0  0  0  0
    6.0883   -8.8970    0.0000 C   0  0  0  0  0  0  0  0  0  0  0  0
    5.3095  -10.0929    0.0000 C   0  0  0  0  0  0  0  0  0  0  0  0
    3.2635   -9.0459    0.0000 C   0  0  0  0  0  0  0  0  0  0  0  0
    6.7799   -9.3537    0.0000 C   0  0  0  0  0  0  0  0  0  0  0  0
    5.9849  -10.5446    0.0000 C   0  0  0  0  0  0  0  0  0  0  0  0
    2.6490   -9.5921    0.0000 C   0  0  0  0  0  0  0  0  0  0  0  0
    3.6009  -10.6640    0.0000 C   0  0  0  0  0  0  0  0  0  0  0  0
    2.8157  -10.4010    0.0000 C   0  0  0  0  0  0  0  0  0  0  0  0
    6.7258  -10.1836    0.0000 C   0  0  0  0  0  0  0  0  0  0  0  0
  2  1  1  0  0  0  0
  3  1  1  0  0  0  0
  4  2  1  0  0  0  0
  5  3  1  0  0  0  0
  6  1  2  0  0  0  0
  7  4  2  0  0  0  0
  9  3  1  0  0  0  0
 10  8  1  0  0  0  0
 11  9  1  0  0  0  0
 12  9  2  0  0  0  0
 13  8  2  0  0  0  0
 14 11  2  0  0  0  0
 15 12  1  0  0  0  0
 16 13  1  0  0  0  0
 17 10  2  0  0  0  0
 18 16  2  0  0  0  0
 19 15  2  0  0  0  0
  4  5  1  0  0  0  0
 19 14  1  0  0  0  0
 18 17  1  0  0  0  0
  3  8  1  0  0  0  0
M  END
> <ID>
CHEBI:8107

> <NAME>
phenytoin

> <DEFINITION>
A imidazolidine-2,4-dione that consists of hydantoin bearing two phenyl substituents at position 5.

> <STAR>
3

> <SECONDARY_ID>
CHEBI:100921

> <SYNONYM>
PHENTYTOIN; DILANTIN; 5,5-diphenyltetrahydro-1H-2,4-imidazoledione; 5,5-diphenylimidazolidine-2,4-dione; 5,5-Diphenyl-imidazolidine-2,4-dione

> <IUPAC_NAME>
5,5-diphenylimidazolidine-2,4-dione

> <INN>
phenytoinum; phenytoine; phenytoin; fenitoina

> <FORMULA>
C15H12N2O2

> <MASS>
252.26800

> <MONOISOTOPIC_MASS>
252.08988

> <CHARGE>
0

> <SMILES>
O=C1NC(=O)C(N1)(c1ccccc1)c1ccccc1

> <INCHI>
InChI=1S/C15H12N2O2/c18-13-15(17-14(19)16-13,11-7-3-1-4-8-11)12-9-5-2-6-10-12/h1-10H,(H2,16,17,18,19)

> <INCHIKEY>
CXOFVDLJLONNDW-UHFFFAOYSA-N

> <BEILSTEIN_REGISTRY_NUMBER>
384532

> <CAS_REGISTRY_NUMBER>
57-41-0

> <REAXYS_REGISTRY_NUMBER>
384532

> <CHEMIDPLUS>
57-41-0

> <DRUGBANK_ACCESSION>
DB00252

> <HMDB_ACCESSION>
HMDB0014397

> <KEGG_COMPOUND_ACCESSION>
C07443

> <KEGG_DRUG_ACCESSION>
D00512

> <LINCS_ACCESSION>
LSM-5663

> <WIKIPEDIA_ACCESSION>
Phenytoin

> <PUBMED_CITATION>
10698828; 12952753; 15246836; 15744730; 16303054; 7105825; 7602118; 9186244

$$$$

Mrv0541 10211416392D          
 
 29 30  0  0  0  0            999 V2000
    7.6314  -10.2715    0.0000 C   0  0  0  0  0  0  0  0  0  0  0  0
    7.6314  -11.0965    0.0000 C   0  0  0  0  0  0  0  0  0  0  0  0
    8.3459  -11.5090    0.0000 C   0  0  0  0  0  0  0  0  0  0  0  0
    9.0604  -11.0965    0.0000 C   0  0  0  0  0  0  0  0  0  0  0  0
    9.0604  -10.2715    0.0000 C   0  0  0  0  0  0  0  0  0  0  0  0
    8.3459   -9.8590    0.0000 C   0  0  0  0  0  0  0  0  0  0  0  0
   10.4893  -10.2715    0.0000 C   0  0  0  0  0  0  0  0  0  0  0  0
   10.4893  -11.0964    0.0000 N   0  0  0  0  0  0  0  0  0  0  0  0
   11.2038  -11.5089    0.0000 C   0  0  0  0  0  0  0  0  0  0  0  0
   11.9183  -11.0964    0.0000 C   0  0  0  0  0  0  0  0  0  0  0  0
   11.9183  -10.2715    0.0000 C   0  0  0  0  0  0  0  0  0  0  0  0
   11.2038   -9.8590    0.0000 C   0  0  0  0  0  0  0  0  0  0  0  0
    8.3459   -9.0341    0.0000 N   0  3  0  0  0  0  0  0  0  0  0  0
    6.9170   -9.8590    0.0000 Cl  0  0  0  0  0  0  0  0  0  0  0  0
    6.9170  -11.5090    0.0000 C   0  0  0  0  0  0  0  0  0  0  0  0
    6.2124  -11.1022    0.0000 F   0  0  0  0  0  0  0  0  0  0  0  0
    6.9169  -12.3339    0.0000 F   0  0  0  0  0  0  0  0  0  0  0  0
    6.2024  -11.9215    0.0000 F   0  0  0  0  0  0  0  0  0  0  0  0
    9.6621  -11.5155    0.0000 N   0  3  0  0  0  0  0  0  0  0  0  0
    9.6621  -12.3405    0.0000 O   0  5  0  0  0  0  0  0  0  0  0  0
   10.5786  -11.8068    0.0000 O   0  0  0  0  0  0  0  0  0  0  0  0
   12.6241  -11.5039    0.0000 C   0  0  0  0  0  0  0  0  0  0  0  0
   13.3242  -11.0997    0.0000 F   0  0  0  0  0  0  0  0  0  0  0  0
   12.6241  -12.3338    0.0000 F   0  0  0  0  0  0  0  0  0  0  0  0
   13.3385  -11.9164    0.0000 F   0  0  0  0  0  0  0  0  0  0  0  0
   11.2038   -9.0339    0.0000 Cl  0  0  0  0  0  0  0  0  0  0  0  0
    9.0668   -8.6330    0.0000 O   0  5  0  0  0  0  0  0  0  0  0  0
    9.7749   -9.8590    0.0000 N   0  0  0  0  0  0  0  0  0  0  0  0
    7.6347   -8.6159    0.0000 O   0  0  0  0  0  0  0  0  0  0  0  0
  1  2  2  0  0  0  0
  2  3  1  0  0  0  0
  3  4  2  0  0  0  0
  4  5  1  0  0  0  0
  5  6  2  0  0  0  0
  1  6  1  0  0  0  0
  7  8  2  0  0  0  0
  8  9  1  0  0  0  0
  9 10  2  0  0  0  0
 10 11  1  0  0  0  0
 11 12  2  0  0  0  0
  7 12  1  0  0  0  0
  6 13  1  0  0  0  0
  1 14  1  0  0  0  0
  2 15  1  0  0  0  0
 15 16  1  0  0  0  0
 15 17  1  0  0  0  0
 15 18  1  0  0  0  0
  4 19  1  0  0  0  0
 19 20  1  0  0  0  0
 19 21  2  0  0  0  0
 10 22  1  0  0  0  0
 22 23  1  0  0  0  0
 22 24  1  0  0  0  0
 22 25  1  0  0  0  0
 12 26  1  0  0  0  0
 13 27  1  0  0  0  0
  5 28  1  0  0  0  0
  7 28  1  0  0  0  0
 13 29  2  0  0  0  0
M  CHG  4  13   1  19   1  20  -1  27  -1
M  END
> <ID>
CHEBI:81843

> <NAME>
fluazinam

> <DEFINITION>
A member of the class of aminopyridines that is 2-amino-5-(trifluoromethyl)pyridine in which one of the amino hydrogens is replaced by a 3-chloro-2,6-dinitro-4-(trifluoromethyl)phenyl group. A fungicide used to control grey mould, downy mildew and other fungal pathogens.

> <STAR>
3

> <SYNONYM>
3-chloro-N-(3-chloro-5-trifluoromethyl-2-pyridyl)-alpha,alpha,alpha-trifluoro-2,6-dinitro-p-toluidine

> <IUPAC_NAME>
3-chloro-N-[3-chloro-2,6-dinitro-4-(trifluoromethyl)phenyl]-5-(trifluoromethyl)pyridin-2-amine

> <BRAND_NAME>
Shirlan

> <FORMULA>
C13H4Cl2F6N4O4

> <MASS>
465.09200

> <MONOISOTOPIC_MASS>
463.95138

> <CHARGE>
0

> <SMILES>
[O-][N+](=O)c1cc(c(Cl)c(c1Nc1ncc(cc1Cl)C(F)(F)F)[N+]([O-])=O)C(F)(F)F

> <INCHI>
InChI=1S/C13H4Cl2F6N4O4/c14-6-1-4(12(16,17)18)3-22-11(6)23-9-7(24(26)27)2-5(13(19,20)21)8(15)10(9)25(28)29/h1-3H,(H,22,23)

> <INCHIKEY>
UZCGKGPEKUCDTF-UHFFFAOYSA-N

> <CAS_REGISTRY_NUMBER>
79622-59-6

> <REAXYS_REGISTRY_NUMBER>
4772672

> <CHEMIDPLUS>
79622-59-6

> <KEGG_COMPOUND_ACCESSION>
C18578

> <PESTICIDES_ACCESSION>
fluazinam

> <WIKIPEDIA_ACCESSION>
Fluazinam

> <PUBMED_CITATION>
19837458; 21907236; 22465686; 23464902; 24427089; 24813983; 7774188

$$$$

Marvin  05130915252D          

 37 40  0  0  1  0            999 V2000
   14.4461   -6.8427    0.0000 N   0  0  0  0  0  0  0  0  0  0  0  0
   15.2307   -5.7629    0.0000 S   0  0  0  0  0  0  0  0  0  0  0  0
   16.4301   -6.8427    0.0000 C   0  0  0  0  0  0  0  0  0  0  0  0
   15.7156   -6.4303    0.0000 C   0  0  0  0  0  0  0  0  0  0  0  0
   16.4301   -6.0178    0.0000 C   0  0  0  0  0  0  0  0  0  0  0  0
   15.2307   -7.0977    0.0000 C   0  0  2  0  0  0  0  0  0  0  0  0
   16.2926   -8.0538    0.0000 O   0  0  0  0  0  0  0  0  0  0  0  0
   15.4856   -7.8823    0.0000 C   0  0  0  0  0  0  0  0  0  0  0  0
   14.9336   -8.4954    0.0000 O   0  0  0  0  0  0  0  0  0  0  0  0
   13.6211   -6.0178    0.0000 C   0  0  2  0  0  0  0  0  0  0  0  0
   12.9067   -5.6053    0.0000 N   0  0  0  0  0  0  0  0  0  0  0  0
   12.1922   -6.0178    0.0000 C   0  0  0  0  0  0  0  0  0  0  0  0
   12.1922   -6.8427    0.0000 O   0  0  0  0  0  0  0  0  0  0  0  0
   11.4778   -5.6053    0.0000 C   0  0  1  0  0  0  0  0  0  0  0  0
   13.6211   -6.8427    0.0000 C   0  0  0  0  0  0  0  0  0  0  0  0
   13.0378   -7.4261    0.0000 O   0  0  0  0  0  0  0  0  0  0  0  0
   14.4461   -6.0178    0.0000 C   0  0  2  0  0  0  0  0  0  0  0  0
   14.4461   -5.1928    0.0000 H   0  0  0  0  0  0  0  0  0  0  0  0
   11.4779   -4.7803    0.0000 C   0  0  0  0  0  0  0  0  0  0  0  0
   10.7633   -6.0178    0.0000 N   0  0  0  0  0  0  0  0  0  0  0  0
   11.4779   -3.1303    0.0000 C   0  0  0  0  0  0  0  0  0  0  0  0
   10.7634   -3.5428    0.0000 C   0  0  0  0  0  0  0  0  0  0  0  0
   10.7634   -4.3678    0.0000 C   0  0  0  0  0  0  0  0  0  0  0  0
   12.1924   -4.3678    0.0000 C   0  0  0  0  0  0  0  0  0  0  0  0
   12.1924   -3.5428    0.0000 C   0  0  0  0  0  0  0  0  0  0  0  0
   10.0489   -5.6053    0.0000 C   0  0  0  0  0  0  0  0  0  0  0  0
   10.0489   -4.7803    0.0000 O   0  0  0  0  0  0  0  0  0  0  0  0
    9.3344   -6.0178    0.0000 N   0  0  0  0  0  0  0  0  0  0  0  0
    8.6199   -5.6053    0.0000 C   0  0  0  0  0  0  0  0  0  0  0  0
    7.9054   -6.0178    0.0000 C   0  0  0  0  0  0  0  0  0  0  0  0
    7.9054   -6.8428    0.0000 N   0  0  0  0  0  0  0  0  0  0  0  0
    8.6199   -7.2553    0.0000 C   0  0  0  0  0  0  0  0  0  0  0  0
    9.3344   -6.8428    0.0000 C   0  0  0  0  0  0  0  0  0  0  0  0
    8.6199   -4.7803    0.0000 O   0  0  0  0  0  0  0  0  0  0  0  0
    7.1910   -5.6053    0.0000 O   0  0  0  0  0  0  0  0  0  0  0  0
    7.1910   -7.2553    0.0000 C   0  0  0  0  0  0  0  0  0  0  0  0
    6.4765   -6.8428    0.0000 C   0  0  0  0  0  0  0  0  0  0  0  0
 17 10  1  0  0  0  0
 10 15  1  0  0  0  0
 15  1  1  0  0  0  0
  1  6  1  0  0  0  0
 17  1  1  0  0  0  0
  2 17  1  0  0  0  0
  2  4  1  0  0  0  0
  6  4  1  0  0  0  0
  4  3  1  0  0  0  0
  4  5  1  0  0  0  0
  6  8  1  6  0  0  0
  8  7  1  0  0  0  0
  8  9  2  0  0  0  0
 10 11  1  1  0  0  0
 11 12  1  0  0  0  0
 12 14  1  0  0  0  0
 12 13  2  0  0  0  0
 15 16  2  0  0  0  0
 17 18  1  6  0  0  0
 14 19  1  6  0  0  0
 14 20  1  0  0  0  0
 23 19  2  0  0  0  0
 19 24  1  0  0  0  0
 21 22  2  0  0  0  0
 22 23  1  0  0  0  0
 24 25  2  0  0  0  0
 21 25  1  0  0  0  0
 20 26  1  0  0  0  0
 26 27  2  0  0  0  0
 26 28  1  0  0  0  0
 33 28  1  0  0  0  0
 29 28  1  0  0  0  0
 29 30  1  0  0  0  0
 30 31  1  0  0  0  0
 31 32  1  0  0  0  0
 32 33  1  0  0  0  0
 29 34  2  0  0  0  0
 30 35  2  0  0  0  0
 31 36  1  0  0  0  0
 36 37  1  0  0  0  0
M  END
> <ID>
CHEBI:8232

> <NAME>
piperacillin

> <DEFINITION>
A penicillin in which the substituent at position 6 of the penam ring is a 2-[(4-ethyl-2,3-dioxopiperazin-1-yl)carboxamido]-2-phenylacetamido group.

> <STAR>
3

> <SECONDARY_ID>
CHEBI:475140; CHEBI:505944; CHEBI:472443

> <SYNONYM>
Piperacillin anhydrous; Piperacillin; (2S,5R,6R)-6-{[(2R)-2-{[(4-ethyl-2,3-dioxopiperazin-1-yl)carbonyl]amino}-2-phenylacetyl]amino}-3,3-dimethyl-7-oxo-4-thia-1-azabicyclo[3.2.0]heptane-2-carboxylic acid

> <IUPAC_NAME>
6beta-{(2R)-2-[(4-ethyl-2,3-dioxopiperazin-1-yl)carboxamido]-2-phenylacetamido}-2,2-dimethylpenam-3alpha-carboxylic acid

> <INN>
piperacillin

> <FORMULA>
C23H27N5O7S

> <MASS>
517.55500

> <MONOISOTOPIC_MASS>
517.16312

> <CHARGE>
0

> <SMILES>
[H][C@]12SC(C)(C)[C@@H](N1C(=O)[C@H]2NC(=O)[C@H](NC(=O)N1CCN(CC)C(=O)C1=O)c1ccccc1)C(O)=O

> <INCHI>
InChI=1S/C23H27N5O7S/c1-4-26-10-11-27(19(32)18(26)31)22(35)25-13(12-8-6-5-7-9-12)16(29)24-14-17(30)28-15(21(33)34)23(2,3)36-20(14)28/h5-9,13-15,20H,4,10-11H2,1-3H3,(H,24,29)(H,25,35)(H,33,34)/t13-,14-,15+,20-/m1/s1

> <INCHIKEY>
IVBHGBMCVLDMKU-GXNBUGAJSA-N

> <BEILSTEIN_REGISTRY_NUMBER>
6081140

> <CAS_REGISTRY_NUMBER>
61477-96-1

> <REAXYS_REGISTRY_NUMBER>
6081140

> <CHEMIDPLUS>
61477-96-1

> <DRUGBANK_ACCESSION>
DB00319

> <KEGG_COMPOUND_ACCESSION>
C14034

> <KEGG_DRUG_ACCESSION>
D08380

> <LINCS_ACCESSION>
LSM-5924

> <WIKIPEDIA_ACCESSION>
Piperacillin

> <PUBMED_CITATION>
1701026; 25998949; 29017833; 29148816; 7486906; 17158942; 17851079; 17116662

$$$$

Mrv0541 03051511552D          
 
  8  7  0  0  0  0            999 V2000
    8.2502  -10.7665    0.0000 C   0  0  0  0  0  0  0  0  0  0  0  0
    8.9646  -10.3540    0.0000 C   0  0  0  0  0  0  0  0  0  0  0  0
    9.6792  -10.7665    0.0000 N   0  0  0  0  0  0  0  0  0  0  0  0
   10.3936  -10.3540    0.0000 C   0  0  0  0  0  0  0  0  0  0  0  0
   11.1081  -10.7665    0.0000 N   0  0  0  0  0  0  0  0  0  0  0  0
   11.8226  -10.3540    0.0000 C   0  0  0  0  0  0  0  0  0  0  0  0
   12.5371  -10.7665    0.0000 C   0  0  0  0  0  0  0  0  0  0  0  0
   10.3936   -9.5290    0.0000 S   0  0  0  0  0  0  0  0  0  0  0  0
  1  2  1  0  0  0  0
  2  3  1  0  0  0  0
  3  4  1  0  0  0  0
  4  5  1  0  0  0  0
  5  6  1  0  0  0  0
  6  7  1  0  0  0  0
  4  8  2  0  0  0  0
M  END
> <ID>
CHEBI:82448

> <NAME>
N,N'-diethylthiourea

> <DEFINITION>
Thiourea in which each nitrogen carries an ethyl substituent.

> <STAR>
3

> <SYNONYM>
Thiate H; Pennzone E; N,N-Diethyl-2-thiourea; N,N'-Diethylthiocarbamide; diethylthiourea; DETU; 1,3-Diethylthiourea; 1,3-Diethyl-2-thiourea

> <IUPAC_NAME>
N,N'-diethylthiourea

> <FORMULA>
C5H12N2S

> <MASS>
132.22700

> <MONOISOTOPIC_MASS>
132.07212

> <CHARGE>
0

> <SMILES>
CCNC(=S)NCC

> <INCHI>
InChI=1S/C5H12N2S/c1-3-6-5(8)7-4-2/h3-4H2,1-2H3,(H2,6,7,8)

> <INCHIKEY>
FLVIGYVXZHLUHP-UHFFFAOYSA-N

> <BEILSTEIN_REGISTRY_NUMBER>
773905

> <CAS_REGISTRY_NUMBER>
105-55-5

> <REAXYS_REGISTRY_NUMBER>
773905

> <CHEMIDPLUS>
105-55-5

> <KEGG_COMPOUND_ACCESSION>
C19400

> <NIST_CHEMISTRY_WEBBOOK>
105-55-5

> <PUBMED_CITATION>
11924477; 19463235; 21210829; 21564129; 22428567; 25532938; 28295200

$$$$

Ketcher 06031613332D 1   1.00000     0.00000     0

 15 15  0     0  0            999 V2000
   13.7685   -5.8286    0.0000 C   0  0  0  0  0  0  0  0  0  0  0  0
   12.9018   -5.3284    0.0000 C   0  0  0  0  0  0  0  0  0  0  0  0
   13.7685   -6.8287    0.0000 C   0  0  0  0  0  0  0  0  0  0  0  0
   14.6269   -5.3328    0.0000 C   0  0  0  0  0  0  0  0  0  0  0  0
   12.0309   -5.8286    0.0000 C   0  0  0  0  0  0  0  0  0  0  0  0
   12.9060   -4.3284    0.0000 O   0  0  0  0  0  0  0  0  0  0  0  0
   12.9018   -7.3328    0.0000 C   0  0  0  0  0  0  0  0  0  0  0  0
   15.4936   -5.8327    0.0000 C   0  0  0  0  0  0  0  0  0  0  0  0
   12.0309   -6.8287    0.0000 C   0  0  0  0  0  0  0  0  0  0  0  0
   11.1642   -5.3284    0.0000 O   0  0  0  0  0  0  0  0  0  0  0  0
   12.9060   -8.3372    0.0000 O   0  0  0  0  0  0  0  0  0  0  0  0
   16.3562   -5.3410    0.0000 C   0  0  0  0  0  0  0  0  0  0  0  0
   17.2231   -5.8370    0.0000 C   0  0  0  0  0  0  0  0  0  0  0  0
   18.0898   -5.3452    0.0000 C   0  0  0  0  0  0  0  0  0  0  0  0
   11.1642   -4.3284    0.0000 C   0  0  0  0  0  0  0  0  0  0  0  0
  1  2  1  0     0  0
  1  3  2  0     0  0
  1  4  1  0     0  0
  2  5  1  0     0  0
  2  6  2  0     0  0
  3  7  1  0     0  0
  4  8  1  0     0  0
  5  9  2  0     0  0
  5 10  1  0     0  0
  7 11  2  0     0  0
  8 12  1  0     0  0
 12 13  1  0     0  0
 13 14  1  0     0  0
  7  9  1  0     0  0
 10 15  1  0     0  0
M  END
> <ID>
CHEBI:8413

> <NAME>
primin

> <DEFINITION>
A 1,4-benzoquinone having a methoxy substituent at the 2-position and a pentyl substituent at the 6-position.

> <STAR>
3

> <SYNONYM>
Primin; 2-methoxy-6-pentylcyclohexa-2,5-diene-1,4-dione; 2-methoxy-6-pentyl-2,5-cyclohexadiene-1,4-dione; 2-methoxy-6-n-pentyl-p-benzoquinone; 2-methoxy-6-n-pentyl-1,4-benzoquinone

> <IUPAC_NAME>
2-methoxy-6-pentyl-1,4-benzoquinone

> <FORMULA>
C12H16O3

> <MASS>
208.254

> <MONOISOTOPIC_MASS>
208.10994

> <CHARGE>
0

> <SMILES>
C=1(C(C(=CC(C1)=O)OC)=O)CCCCC

> <INCHI>
InChI=1S/C12H16O3/c1-3-4-5-6-9-7-10(13)8-11(15-2)12(9)14/h7-8H,3-6H2,1-2H3

> <INCHIKEY>
WLWIMKWZMGJRBS-UHFFFAOYSA-N

> <BEILSTEIN_REGISTRY_NUMBER>
1961495

> <CAS_REGISTRY_NUMBER>
15121-94-5

> <REAXYS_REGISTRY_NUMBER>
1961495

> <CHEMIDPLUS>
15121-94-5

> <KEGG_COMPOUND_ACCESSION>
C10390

> <KNAPSACK_ACCESSION>
C00002854

> <PUBMED_CITATION>
11170656; 15462465; 17193236; 17577376; 17827773

$$$$

Marvin  03170913052D          

 17 17  0  0  0  0            999 V2000
    9.3221  -18.0792    0.0000 C   0  0  0  0  0  0  0  0  0  0  0  0
   10.0750  -18.4974    0.0000 C   0  0  0  0  0  0  0  0  0  0  0  0
    9.3221  -17.2426    0.0000 C   0  0  0  0  0  0  0  0  0  0  0  0
    8.6110  -18.4974    0.0000 C   0  0  0  0  0  0  0  0  0  0  0  0
   10.7861  -18.0792    0.0000 O   0  0  0  0  0  0  0  0  0  0  0  0
   10.0750  -19.3340    0.0000 O   0  0  0  0  0  0  0  0  0  0  0  0
    8.6110  -16.8243    0.0000 C   0  0  0  0  0  0  0  0  0  0  0  0
    7.8999  -18.0792    0.0000 C   0  0  0  0  0  0  0  0  0  0  0  0
   11.4972  -18.4974    0.0000 C   0  0  0  0  0  0  0  0  0  0  0  0
    7.8999  -17.2426    0.0000 C   0  0  0  0  0  0  0  0  0  0  0  0
   12.2501  -18.0792    0.0000 C   0  0  0  0  0  0  0  0  0  0  0  0
    7.1470  -16.8243    0.0000 N   0  0  0  0  0  0  0  0  0  0  0  0
   12.9612  -18.4974    0.0000 N   0  0  0  0  0  0  0  0  0  0  0  0
   13.6723  -18.0792    0.0000 C   0  0  0  0  0  0  0  0  0  0  0  0
   12.9612  -19.3340    0.0000 C   0  0  0  0  0  0  0  0  0  0  0  0
   14.4252  -18.4974    0.0000 C   0  0  0  0  0  0  0  0  0  0  0  0
   13.6723  -19.7523    0.0000 C   0  0  0  0  0  0  0  0  0  0  0  0
  1  2  1  0  0  0  0
  1  3  1  0  0  0  0
  1  4  2  0  0  0  0
  2  5  1  0  0  0  0
  2  6  2  0  0  0  0
  3  7  2  0  0  0  0
  4  8  1  0  0  0  0
  5  9  1  0  0  0  0
  7 10  1  0  0  0  0
  9 11  1  0  0  0  0
 10 12  1  0  0  0  0
 11 13  1  0  0  0  0
 13 14  1  0  0  0  0
 13 15  1  0  0  0  0
 14 16  1  0  0  0  0
 15 17  1  0  0  0  0
  8 10  2  0  0  0  0
M  END
> <ID>
CHEBI:8430

> <NAME>
procaine

> <DEFINITION>
A benzoate ester, formally the result of esterification of 4-aminobenzoic acid with 2-diethylaminoethanol but formed experimentally by reaction of ethyl 4-aminobenzoate with 2-diethylaminoethanol.

> <STAR>
3

> <SYNONYM>
Vitamin H3; Procaine; p-Aminobenzoic acid 2-diethylaminoethyl ester; novocaine; beta-(diethylamino)ethyl p-aminobenzoate; beta-(diethylamino)ethyl 4-aminobenzoate; 4-aminobenzoic acid 2-diethylaminoethyl ester; 2-Diethylaminoethyl p-aminobenzoate

> <IUPAC_NAME>
2-(diethylamino)ethyl 4-aminobenzoate

> <INN>
procainum; procaine; procaina

> <FORMULA>
C13H20N2O2

> <MASS>
236.31010

> <MONOISOTOPIC_MASS>
236.15248

> <CHARGE>
0

> <SMILES>
CCN(CC)CCOC(=O)c1ccc(N)cc1

> <INCHI>
InChI=1S/C13H20N2O2/c1-3-15(4-2)9-10-17-13(16)11-5-7-12(14)8-6-11/h5-8H,3-4,9-10,14H2,1-2H3

> <INCHIKEY>
MFDFERRIHVXMIY-UHFFFAOYSA-N

> <BEILSTEIN_REGISTRY_NUMBER>
913480

> <CAS_REGISTRY_NUMBER>
59-46-1

> <REAXYS_REGISTRY_NUMBER>
913480

> <CHEMIDPLUS>
59-46-1

> <DRUGBANK_ACCESSION>
DB00721

> <HMDB_ACCESSION>
HMDB0014859

> <KEGG_COMPOUND_ACCESSION>
C07375

> <KEGG_DRUG_ACCESSION>
D08422

> <LINCS_ACCESSION>
LSM-5396

> <NIST_CHEMISTRY_WEBBOOK>
59-46-1

> <WIKIPEDIA_ACCESSION>
Procaine

> <PUBMED_CITATION>
12941824; 15687733; 19669330; 19885602; 23254173; 23600203; 23718080; 23962059; 24005047; 6784593

$$$$

Marvin  11190913082D          

 17 17  0  0  0  0            999 V2000
   -2.7696    0.0295    0.0000 C   0  0  0  0  0  0  0  0  0  0  0  0
   -3.4841   -0.3830    0.0000 C   0  0  0  0  0  0  0  0  0  0  0  0
   -3.4841   -1.2080    0.0000 C   0  0  0  0  0  0  0  0  0  0  0  0
   -2.7696   -1.6206    0.0000 C   0  0  0  0  0  0  0  0  0  0  0  0
   -2.0552   -1.2080    0.0000 C   0  0  0  0  0  0  0  0  0  0  0  0
   -2.0552   -0.3830    0.0000 C   0  0  0  0  0  0  0  0  0  0  0  0
   -4.1986   -1.6205    0.0000 Cl  0  0  0  0  0  0  0  0  0  0  0  0
   -1.3407    0.0295    0.0000 N   0  0  0  0  0  0  0  0  0  0  0  0
   -0.6262   -0.3830    0.0000 C   0  0  0  0  0  0  0  0  0  0  0  0
   -0.6262   -1.2080    0.0000 N   0  0  0  0  0  0  0  0  0  0  0  0
    0.0882    0.0295    0.0000 N   0  0  0  0  0  0  0  0  0  0  0  0
    0.8027   -0.3830    0.0000 C   0  0  0  0  0  0  0  0  0  0  0  0
    0.8027   -1.2080    0.0000 N   0  0  0  0  0  0  0  0  0  0  0  0
    1.5172    0.0295    0.0000 N   0  0  0  0  0  0  0  0  0  0  0  0
    2.2316   -0.3830    0.0000 C   0  0  0  0  0  0  0  0  0  0  0  0
    2.9461    0.0295    0.0000 C   0  0  0  0  0  0  0  0  0  0  0  0
    2.2316   -1.2080    0.0000 C   0  0  0  0  0  0  0  0  0  0  0  0
  1  2  1  0  0  0  0
  1  6  2  0  0  0  0
  2  3  2  0  0  0  0
  3  4  1  0  0  0  0
  4  5  2  0  0  0  0
  5  6  1  0  0  0  0
  3  7  1  0  0  0  0
  6  8  1  0  0  0  0
  8  9  1  0  0  0  0
  9 10  2  0  0  0  0
  9 11  1  0  0  0  0
 11 12  1  0  0  0  0
 12 13  2  0  0  0  0
 12 14  1  0  0  0  0
 14 15  1  0  0  0  0
 15 16  1  0  0  0  0
 15 17  1  0  0  0  0
M  END
> <ID>
CHEBI:8455

> <NAME>
proguanil

> <DEFINITION>
A biguanide compound which has isopropyl and p-chlorophenyl substituents on the terminal N atoms. A prophylactic antimalarial drug, it works by inhibiting the enzyme dihydrofolate reductase, which is involved in the reproduction of the malaria parasites Plasmodium falciparum and P. vivax within the red blood cells.

> <STAR>
3

> <SYNONYM>
N-(4-Chlorophenyl)-N'-(isopropyl)-imidodicarbonimidic diamide;  N-(4-Chlorophenyl)-N'-(isopropyl)-imidodicarbonimidic diamide; Chloroguanide; Chlorguanide; 1-(p-chlorophenyl)-5-isopropylbiguanide

> <IUPAC_NAME>
N-(4-chlorophenyl)-N'-(propan-2-yl)imidodicarbonimidic diamide

> <INN>
proguanilum; proguanil

> <FORMULA>
C11H16ClN5

> <MASS>
253.73100

> <MONOISOTOPIC_MASS>
253.10942

> <CHARGE>
0

> <SMILES>
CC(C)NC(=N)NC(=N)Nc1ccc(Cl)cc1

> <INCHI>
InChI=1S/C11H16ClN5/c1-7(2)15-10(13)17-11(14)16-9-5-3-8(12)4-6-9/h3-7H,1-2H3,(H5,13,14,15,16,17)

> <INCHIKEY>
SSOLNOMRVKKSON-UHFFFAOYSA-N

> <BEILSTEIN_REGISTRY_NUMBER>
2811599

> <CAS_REGISTRY_NUMBER>
500-92-5

> <REAXYS_REGISTRY_NUMBER>
2811599

> <CHEMIDPLUS>
500-92-5

> <DRUGBANK_ACCESSION>
DB01131

> <HMDB_ACCESSION>
HMDB0015263

> <KEGG_COMPOUND_ACCESSION>
C07631

> <KEGG_DRUG_ACCESSION>
D08428

> <LINCS_ACCESSION>
LSM-2618

> <WIKIPEDIA_ACCESSION>
Proguanil

> <PUBMED_CITATION>
10348748; 10848923; 15504827; 8866915

$$$$

Mrv0541 02101517492D          

 15 15  0  0  1  0            999 V2000
   15.3659  -40.4353    0.0000 C   0  0  1  0  0  0  0  0  0  0  0  0
   15.3659  -41.2603    0.0000 C   0  0  1  0  0  0  0  0  0  0  0  0
   14.6513  -40.0228    0.0000 O   0  0  0  0  0  0  0  0  0  0  0  0
   14.6513  -41.6728    0.0000 C   0  0  2  0  0  0  0  0  0  0  0  0
   13.9369  -40.4353    0.0000 C   0  0  0  0  0  0  0  0  0  0  0  0
   13.9369  -41.2603    0.0000 C   0  0  1  0  0  0  0  0  0  0  0  0
   16.0803  -40.0228    0.0000 O   0  0  0  0  0  0  0  0  0  0  0  0
   16.0803  -41.6728    0.0000 O   0  0  0  0  0  0  0  0  0  0  0  0
   14.6513  -42.4978    0.0000 O   0  0  0  0  0  0  0  0  0  0  0  0
   13.2224  -41.6728    0.0000 O   0  0  0  0  0  0  0  0  0  0  0  0
   16.7948  -40.4353    0.0000 C   0  0  0  0  0  0  0  0  0  0  0  0
   17.5093  -40.0228    0.0000 C   0  0  0  0  0  0  0  0  0  0  0  0
   18.2237  -40.4353    0.0000 C   0  0  0  0  0  0  0  0  0  0  0  0
   18.9382  -40.0228    0.0000 C   0  0  0  0  0  0  0  0  0  0  0  0
   19.6527  -40.4353    0.0000 N   0  0  0  0  0  0  0  0  0  0  0  0
  1  2  1  0  0  0  0
  1  3  1  0  0  0  0
  2  4  1  0  0  0  0
  3  5  1  0  0  0  0
  4  6  1  0  0  0  0
  5  6  1  0  0  0  0
  1  7  1  1  0  0  0
  2  8  1  6  0  0  0
  4  9  1  1  0  0  0
  6 10  1  6  0  0  0
 11  7  1  0  0  0  0
 12 11  1  0  0  0  0
 13 12  1  0  0  0  0
 14 13  1  0  0  0  0
 15 14  1  0  0  0  0
M  END
> <ID>
CHEBI:84737

> <NAME>
4-aminobutyl beta-D-xylopyranoside

> <DEFINITION>
A glycoside that is β-D-xylose in which the hydrogen of the anomeric hydroxy group is replaced by a 4-aminobutyl group. A synthetic version of the β-xylosyl glycoside (BXG) epitope from the major peanut allergen glycoprotein Arachis hypogaea h2 (Ara-h2).

> <STAR>
3

> <SYNONYM>
BXG; 4-aminobutyl beta-D-xyloside

> <IUPAC_NAME>
4-aminobutyl beta-D-xylopyranoside

> <FORMULA>
C9H19NO5

> <MASS>
221.25090

> <MONOISOTOPIC_MASS>
221.12632

> <CHARGE>
0

> <SMILES>
NCCCCO[C@@H]1OC[C@@H](O)[C@H](O)[C@H]1O

> <INCHI>
InChI=1S/C9H19NO5/c10-3-1-2-4-14-9-8(13)7(12)6(11)5-15-9/h6-9,11-13H,1-5,10H2/t6-,7+,8-,9-/m1/s1

> <INCHIKEY>
OXDSYOVQICZLBQ-BZNPZCIMSA-N

> <PUBMED_CITATION>
25259443; 29232483

$$$$

Mrv0541 03051513582D          

  5  4  0  0  0  0            999 V2000
    8.1441   -8.6132    0.0000 N   0  0  0  0  0  0  0  0  0  0  0  0
    6.7151   -8.6132    0.0000 C   0  0  0  0  0  0  0  0  0  0  0  0
    8.9691   -8.6132    0.0000 C   0  0  0  0  0  0  0  0  0  0  0  0
    9.7941   -8.6132    0.0000 S   0  0  0  0  0  0  0  0  0  0  0  0
    7.4295   -8.2007    0.0000 C   0  0  0  0  0  0  0  0  0  0  0  0
  1  3  2  0  0  0  0
  4  3  2  0  0  0  0
  5  1  1  0  0  0  0
  2  5  1  0  0  0  0
M  END
> <ID>
CHEBI:85098

> <NAME>
ethyl isothiocyanate

> <DEFINITION>
An isothiocyanate having an ethyl group attached to the nitrogen.

> <STAR>
3

> <SYNONYM>
Isothiocyanic acid, ethyl ester; EITC

> <IUPAC_NAME>
isothiocyanatoethane

> <FORMULA>
C3H5NS

> <MASS>
87.14400

> <MONOISOTOPIC_MASS>
87.01427

> <CHARGE>
0

> <SMILES>
CCN=C=S

> <INCHI>
InChI=1S/C3H5NS/c1-2-4-3-5/h2H2,1H3

> <INCHIKEY>
HBNYJWAFDZLWRS-UHFFFAOYSA-N

> <CAS_REGISTRY_NUMBER>
542-85-8

> <REAXYS_REGISTRY_NUMBER>
1737705

> <CHEMIDPLUS>
542-85-8

> <NIST_CHEMISTRY_WEBBOOK>
542-85-8

> <AGRICOLA_CITATION>
IND44569343

> <PUBMED_CITATION>
24039128; 25532938; 28295200

$$$$

Mrv0541 03051513342D          

  9  9  0  0  0  0            999 V2000
   13.8171  -12.7828    0.0000 N   0  0  0  0  0  0  0  0  0  0  0  0
   13.1025  -13.1953    0.0000 C   0  0  0  0  0  0  0  0  0  0  0  0
   12.3880  -12.7828    0.0000 C   0  0  0  0  0  0  0  0  0  0  0  0
   14.6420  -12.7828    0.0000 C   0  0  0  0  0  0  0  0  0  0  0  0
   15.4671  -12.7828    0.0000 S   0  0  0  0  0  0  0  0  0  0  0  0
   13.1024  -14.0203    0.0000 C   0  0  0  0  0  0  0  0  0  0  0  0
   12.3879  -14.4328    0.0000 C   0  0  0  0  0  0  0  0  0  0  0  0
   11.6735  -13.1952    0.0000 C   0  0  0  0  0  0  0  0  0  0  0  0
   11.6735  -14.0202    0.0000 C   0  0  0  0  0  0  0  0  0  0  0  0
  2  1  1  0  0  0  0
  1  4  2  0  0  0  0
  5  4  2  0  0  0  0
  6  2  1  0  0  0  0
  3  2  2  0  0  0  0
  7  6  2  0  0  0  0
  8  3  1  0  0  0  0
  9  7  1  0  0  0  0
  9  8  2  0  0  0  0
M  END
> <ID>
CHEBI:85103

> <NAME>
phenyl isothiocyanate

> <DEFINITION>
An isothiocyanate having a phenyl group attached to the nitrogen; used for amino acid sequencing in the Edman degradation.

> <STAR>
3

> <SYNONYM>
PITC; Phenylsenfoel; Phenyl mustard oil; Isothiocyanic acid phenyl ester; Benzene-1-isothiocyanate

> <IUPAC_NAME>
isothiocyanatobenzene

> <FORMULA>
C7H5NS

> <MASS>
135.18600

> <MONOISOTOPIC_MASS>
135.01427

> <CHARGE>
0

> <SMILES>
S=C=Nc1ccccc1

> <INCHI>
InChI=1S/C7H5NS/c9-6-8-7-4-2-1-3-5-7/h1-5H

> <INCHIKEY>
QKFJKGMPGYROCL-UHFFFAOYSA-N

> <CAS_REGISTRY_NUMBER>
103-72-0

> <REAXYS_REGISTRY_NUMBER>
471392

> <CHEMIDPLUS>
103-72-0

> <NIST_CHEMISTRY_WEBBOOK>
103-72-0

> <WIKIPEDIA_ACCESSION>
Phenyl_isothiocyanate

> <PUBMED_CITATION>
22974327; 24628280; 24852536; 25532938; 28295200

$$$$

Mrv0541 11031415042D          

 21 21  0  0  0  0            999 V2000
    2.1683   -1.1096    0.0000 C   0  0  0  0  0  0  0  0  0  0  0  0
    2.9934   -1.1096    0.0000 C   0  0  0  0  0  0  0  0  0  0  0  0
    2.5809   -2.3791    0.0000 O   0  0  0  0  0  0  0  0  0  0  0  0
    3.2483   -1.8941    0.0000 C   0  0  0  0  0  0  0  0  0  0  0  0
    3.9627   -2.3066    0.0000 C   0  0  0  0  0  0  0  0  0  0  0  0
    5.3917   -2.3066    0.0000 C   0  0  0  0  0  0  0  0  0  0  0  0
    4.6772   -1.8941    0.0000 S   0  0  0  0  0  0  0  0  0  0  0  0
    6.1062   -1.8941    0.0000 C   0  0  0  0  0  0  0  0  0  0  0  0
    7.5351   -1.8941    0.0000 C   0  0  0  0  0  0  0  0  0  0  0  0
    7.5351   -1.0691    0.0000 C   0  0  0  0  0  0  0  0  0  0  0  0
    1.9134   -1.8941    0.0000 C   0  0  0  0  0  0  0  0  0  0  0  0
    1.1990   -2.3066    0.0000 C   0  0  0  0  0  0  0  0  0  0  0  0
   -0.2300   -2.3066    0.0000 C   0  0  0  0  0  0  0  0  0  0  0  0
    6.8206   -2.3066    0.0000 N   0  0  0  0  0  0  0  0  0  0  0  0
    8.1184   -2.4775    0.0000 N   0  0  0  0  0  0  0  0  0  0  0  0
    8.1184   -3.3025    0.0000 C   0  0  0  0  0  0  0  0  0  0  0  0
    8.8329   -0.8982    0.0000 O   0  5  0  0  0  0  0  0  0  0  0  0
    8.1184   -0.4857    0.0000 N   0  3  0  0  0  0  0  0  0  0  0  0
    8.1184    0.3393    0.0000 O   0  0  0  0  0  0  0  0  0  0  0  0
    0.4845   -1.8941    0.0000 N   0  0  0  0  0  0  0  0  0  0  0  0
    0.4845   -1.0691    0.0000 C   0  0  0  0  0  0  0  0  0  0  0  0
  3 11  1  0  0  0  0
  3  4  1  0  0  0  0
 11  1  2  0  0  0  0
  1  2  1  0  0  0  0
  2  4  2  0  0  0  0
  4  5  1  0  0  0  0
  5  7  1  0  0  0  0
  7  6  1  0  0  0  0
  6  8  1  0  0  0  0
  8 14  1  0  0  0  0
 10  9  2  0  0  0  0
  9 15  1  0  0  0  0
 10 18  1  0  0  0  0
 11 12  1  0  0  0  0
 12 20  1  0  0  0  0
 20 13  1  0  0  0  0
 14  9  1  0  0  0  0
 15 16  1  0  0  0  0
 18 17  1  0  0  0  0
 18 19  2  0  0  0  0
 20 21  1  0  0  0  0
M  CHG  2  17  -1  18   1
M  END
> <ID>
CHEBI:8776

> <NAME>
ranitidine

> <DEFINITION>
A member of the class of  furans used to treat  peptic ulcer disease (PUD) and gastroesophageal reflux disease.

> <STAR>
3

> <IUPAC_NAME>
(E)-N-{2-[({5-[(dimethylamino)methyl]-2-furyl}methyl)sulfanyl]ethyl}-N'-methyl-2-nitroethene-1,1-diamine

> <INN>
ranitidinum; ranitidine; ranitidina

> <FORMULA>
C13H22N4O3S

> <MASS>
314.40400

> <MONOISOTOPIC_MASS>
314.14126

> <CHARGE>
0

> <SMILES>
CN\C(NCCSCc1ccc(CN(C)C)o1)=C/[N+]([O-])=O

> <INCHI>
InChI=1S/C13H22N4O3S/c1-14-13(9-17(18)19)15-6-7-21-10-12-5-4-11(20-12)8-16(2)3/h4-5,9,14-15H,6-8,10H2,1-3H3/b13-9+

> <INCHIKEY>
VMXUWOKSQNHOCA-UKTHLTGXSA-N

> <BEILSTEIN_REGISTRY_NUMBER>
4327819

> <CAS_REGISTRY_NUMBER>
66357-35-5

> <REAXYS_REGISTRY_NUMBER>
4327819

> <CHEMIDPLUS>
66357-35-5

> <DRUGBANK_ACCESSION>
DB00863

> <HMDB_ACCESSION>
HMDB0001930

> <KEGG_DRUG_ACCESSION>
D00422

> <WIKIPEDIA_ACCESSION>
Ranitidine

> <PUBMED_CITATION>
18609122; 19694603

$$$$

Ketcher 11041515062D 1   1.00000     0.00000     0

 31 33  0     0  0            999 V2000
   17.2014   -8.9033    0.0000 C   0  0  0  0  0  0  0  0  0  0  0  0
   16.3352   -8.4033    0.0000 C   0  0  0  0  0  0  0  0  0  0  0  0
   17.2014   -9.9034    0.0000 C   0  0  0  0  0  0  0  0  0  0  0  0
   15.4693   -8.9033    0.0000 C   0  0  0  0  0  0  0  0  0  0  0  0
   16.3352  -10.4034    0.0000 C   0  0  0  0  0  0  0  0  0  0  0  0
   15.4693   -9.9034    0.0000 C   0  0  0  0  0  0  0  0  0  0  0  0
   16.3352  -11.4034    0.0000 S   0  0  0  0  0  0  0  0  0  0  0  0
   15.4693  -11.9034    0.0000 O   0  0  0  0  0  0  0  0  0  0  0  0
   16.8352  -12.2695    0.0000 O   0  0  0  0  0  0  0  0  0  0  0  0
   17.3352  -11.4034    0.0000 O   0  0  0  0  0  0  0  0  0  0  0  0
   16.3352   -7.4033    0.0000 N   0  0  0  0  0  0  0  0  0  0  0  0
   15.5263   -6.8155    0.0000 N   0  0  0  0  0  0  0  0  0  0  0  0
   17.1442   -6.8155    0.0000 C   0  0  0  0  0  0  0  0  0  0  0  0
   15.8352   -5.8645    0.0000 C   0  0  0  0  0  0  0  0  0  0  0  0
   16.8351   -5.8643    0.0000 C   0  0  0  0  0  0  0  0  0  0  0  0
   15.2473   -5.0555    0.0000 C   0  0  0  0  0  0  0  0  0  0  0  0
   18.0954   -7.1245    0.0000 O   0  0  0  0  0  0  0  0  0  0  0  0
   17.4228   -5.0552    0.0000 N   0  0  0  0  0  0  0  0  0  0  0  0
   18.4175   -5.1597    0.0000 N   0  0  0  0  0  0  0  0  0  0  0  0
   19.0051   -4.3506    0.0000 C   0  0  0  0  0  0  0  0  0  0  0  0
   18.5984   -3.4372    0.0000 C   0  0  0  0  0  0  0  0  0  0  0  0
   19.9997   -4.4549    0.0000 C   0  0  0  0  0  0  0  0  0  0  0  0
   19.1860   -2.6281    0.0000 C   0  0  0  0  0  0  0  0  0  0  0  0
   20.5873   -3.6460    0.0000 C   0  0  0  0  0  0  0  0  0  0  0  0
   20.1806   -2.7325    0.0000 C   0  0  0  0  0  0  0  0  0  0  0  0
   14.6031   -8.4034    0.0000 Cl  0  0  0  0  0  0  0  0  0  0  0  0
   18.0673  -10.4034    0.0000 Cl  0  0  0  0  0  0  0  0  0  0  0  0
   20.7682   -1.9234    0.0000 S   0  0  0  0  0  0  0  0  0  0  0  0
   21.7628   -2.0279    0.0000 O   0  0  0  0  0  0  0  0  0  0  0  0
   19.9591   -1.3357    0.0000 O   0  0  0  0  0  0  0  0  0  0  0  0
   20.8727   -0.9290    0.0000 O   0  0  0  0  0  0  0  0  0  0  0  0
  3  1  2  0     0  0
  4  2  2  0     0  0
  5  3  1  0     0  0
  6  4  1  0     0  0
  6  5  2  0     0  0
  2  1  1  0     0  0
  7  5  1  0     0  0
  8  7  1  0     0  0
  9  7  2  0     0  0
 10  7  2  0     0  0
 12 11  1  0     0  0
 13 11  1  0     0  0
 14 12  2  0     0  0
 15 13  2  0     0  0
 15 14  1  0     0  0
  2 11  1  0     0  0
 14 16  1  0     0  0
 13 17  1  0     0  0
 15 18  1  0     0  0
 18 19  2  3     0  0
 21 20  1  0     0  0
 22 20  2  0     0  0
 23 21  2  0     0  0
 24 22  1  0     0  0
 25 23  1  0     0  0
 25 24  2  0     0  0
 19 20  1  0     0  0
  4 26  1  0     0  0
  3 27  1  0     0  0
 25 28  1  0     0  0
 28 29  1  0     0  0
 30 28  2  0     0  0
 31 28  2  0     0  0
M  END
> <ID>
CHEBI:90210

> <NAME>
lissamine fast yellow (acid form)

> <DEFINITION>
An arenesulfonic acid that is 2,5-dichloro-4-(pyrazol-1-yl)benzene-1-sulfonic acid in which the pyrazole ring is substituted by methyl, (4-sulfophenyl)diazenyl and hydroxy groups at positions 3, 4, and 5 respctively. The disodium salt is the biological stain 'lissamine fast yellow'.

> <STAR>
3

> <SYNONYM>
lissamine fast yellow free acid

> <IUPAC_NAME>
2,5-dichloro-4-{5-hydroxy-3-methyl-4-[(4-sulfophenyl)diazenyl]pyrazol-1-yl}benzene-1-sulfonic acid

> <FORMULA>
C16H12Cl2N4O7S2

> <MASS>
507.328

> <MONOISOTOPIC_MASS>
505.95245

> <CHARGE>
0

> <SMILES>
C1=C(C(=CC(=C1N2N=C(C(=C2O)N=NC=3C=CC(=CC3)S(O)(=O)=O)C)Cl)S(O)(=O)=O)Cl

> <INCHI>
InChI=1S/C16H12Cl2N4O7S2/c1-8-15(20-19-9-2-4-10(5-3-9)30(24,25)26)16(23)22(21-8)13-6-12(18)14(7-11(13)17)31(27,28)29/h2-7,23H,1H3,(H,24,25,26)(H,27,28,29)

> <INCHIKEY>
SWTAMHBAAIVEKW-UHFFFAOYSA-N

$$$$
null
  CDK     0224162150
null
 30 33  0  0  0  0  0  0  0  0999 V2000
   -1.2471   -3.0749    0.0000 C   0  0  0  0  0  0  0  0  0  0  0  0
   -1.9822   -2.7003    0.0000 C   0  0  0  0  0  0  0  0  0  0  0  0
   -2.1113   -1.8855    0.0000 C   0  0  0  0  0  0  0  0  0  0  0  0
   -2.9261   -1.7564    0.0000 C   0  0  0  0  0  0  0  0  0  0  0  0
   -3.3007   -2.4915    0.0000 N   0  0  0  0  0  0  0  0  0  0  0  0
   -2.7173   -3.0749    0.0000 O   0  0  0  0  0  0  0  0  0  0  0  0
   -3.3007   -1.0213    0.0000 C   0  0  0  0  0  0  0  0  0  0  0  0
   -4.1245   -0.9782    0.0000 C   0  0  0  0  0  0  0  0  0  0  0  0
   -4.4991   -0.2431    0.0000 C   0  0  0  0  0  0  0  0  0  0  0  0
   -4.0497    0.4488    0.0000 C   0  0  0  0  0  0  0  0  0  0  0  0
   -3.2259    0.4056    0.0000 C   0  0  0  0  0  0  0  0  0  0  0  0
   -2.8513   -0.3294    0.0000 C   0  0  0  0  0  0  0  0  0  0  0  0
   -2.0275   -0.3726    0.0000 Cl  0  0  0  0  0  0  0  0  0  0  0  0
   -4.5739   -1.6701    0.0000 F   0  0  0  0  0  0  0  0  0  0  0  0
   -1.5279   -1.3021    0.0000 C   0  0  0  0  0  0  0  0  0  0  0  0
   -1.7414   -0.5052    0.0000 O   0  0  0  0  0  0  0  0  0  0  0  0
   -0.7310   -1.5156    0.0000 N   0  0  0  0  0  0  0  0  0  0  0  0
   -0.1477   -0.9323    0.0000 C   0  0  1  0  0  0  0  0  0  0  0  0
    0.6773   -0.9323    0.0000 C   0  0  2  0  0  0  0  0  0  0  0  0
    0.6773   -0.1073    0.0000 N   0  0  0  0  0  0  0  0  0  0  0  0
   -0.1477   -0.1073    0.0000 C   0  0  0  0  0  0  0  0  0  0  0  0
   -0.7310    0.4761    0.0000 O   0  0  0  0  0  0  0  0  0  0  0  0
    1.4620    0.1477    0.0000 C   0  0  0  0  0  0  0  0  0  0  0  0
    1.9469   -0.5198    0.0000 C   0  0  0  0  0  0  0  0  0  0  0  0
    1.4620   -1.1872    0.0000 S   0  0  0  0  0  0  0  0  0  0  0  0
    2.6656   -0.9248    0.0000 C   0  0  0  0  0  0  0  0  0  0  0  0
    2.6656   -0.1148    0.0000 C   0  0  0  0  0  0  0  0  0  0  0  0
    1.7169    0.9323    0.0000 C   0  0  0  0  0  0  0  0  0  0  0  0
    1.1649    1.5454    0.0000 O   0  0  0  0  0  0  0  0  0  0  0  0
    2.5239    1.1038    0.0000 O   0  0  0  0  0  0  0  0  0  0  0  0
  1  2  1  0  0  0  0 
  2  3  2  0  0  0  0 
  3  4  1  0  0  0  0 
  4  5  2  0  0  0  0 
  5  6  1  0  0  0  0 
  6  2  1  0  0  0  0 
  4  7  1  0  0  0  0 
  7  8  2  0  0  0  0 
  8  9  1  0  0  0  0 
  9 10  2  0  0  0  0 
 10 11  1  0  0  0  0 
 11 12  2  0  0  0  0 
 12  7  1  0  0  0  0 
 12 13  1  0  0  0  0 
  8 14  1  0  0  0  0 
  3 15  1  0  0  0  0 
 15 16  2  0  0  0  0 
 15 17  1  0  0  0  0 
 18 17  1  6  0  0  0 
 18 19  1  0  0  0  0 
 19 20  1  0  0  0  0 
 20 21  1  0  0  0  0 
 21 18  1  0  0  0  0 
 21 22  2  0  0  0  0 
 20 23  1  0  0  0  0 
 23 24  1  0  0  0  0 
 24 25  1  0  0  0  0 
 19 25  1  6  0  0  0 
 24 26  1  0  0  0  0 
 24 27  1  0  0  0  0 
 23 28  1  0  0  0  0 
 28 29  2  0  0  0  0 
 28 30  1  0  0  0  0 
M  END
> <ID>
CHEBI:91539

> <NAME>
(5R,6R)-6-[[[3-(2-chloro-6-fluorophenyl)-5-methyl-4-isoxazolyl]-oxomethyl]amino]-3,3-dimethyl-7-oxo-4-thia-1-azabicyclo[3.2.0]heptane-2-carboxylic acid

> <STAR>
2

> <FORMULA>
C19H17ClFN3O5S

> <MASS>
453.874

> <MONOISOTOPIC_MASS>
453.05615

> <CHARGE>
0

> <SMILES>
CC1=C(C(=NO1)C2=C(C=CC=C2Cl)F)C(=O)N[C@H]3[C@@H]4N(C3=O)C(C(S4)(C)C)C(=O)O

> <INCHI>
InChI=1S/C19H17ClFN3O5S/c1-7-10(12(23-29-7)11-8(20)5-4-6-9(11)21)15(25)22-13-16(26)24-14(18(27)28)19(2,3)30-17(13)24/h4-6,13-14,17H,1-3H3,(H,22,25)(H,27,28)/t13-,14?,17-/m1/s1

> <INCHIKEY>
UIOFUWFRIANQPC-SNVMCYLTSA-N

> <LINCS_ACCESSION>
LSM-1327

$$$$

Marvin  05140914312D          

 28 30  0  0  1  0            999 V2000
   -0.8250    0.8250    0.0000 C   0  0  1  0  0  0  0  0  0  0  0  0
    0.0000    0.0000    0.0000 N   0  0  0  0  0  0  0  0  0  0  0  0
    0.0000    0.8250    0.0000 C   0  0  2  0  0  0  0  0  0  0  0  0
   -0.8250    0.0000    0.0000 C   0  0  0  0  0  0  0  0  0  0  0  0
    0.7846   -0.2549    0.0000 C   0  0  2  0  0  0  0  0  0  0  0  0
    1.2696    0.4125    0.0000 C   0  0  0  0  0  0  0  0  0  0  0  0
    0.7846    1.0800    0.0000 S   0  0  0  0  0  0  0  0  0  0  0  0
    1.9883    0.0076    0.0000 C   0  0  0  0  0  0  0  0  0  0  0  0
    1.9883    0.8175    0.0000 C   0  0  0  0  0  0  0  0  0  0  0  0
   -1.4083   -0.5833    0.0000 O   0  0  0  0  0  0  0  0  0  0  0  0
    1.0396   -1.0395    0.0000 C   0  0  0  0  0  0  0  0  0  0  0  0
    1.8466   -1.2110    0.0000 O   0  0  0  0  0  0  0  0  0  0  0  0
    0.4875   -1.6526    0.0000 O   0  0  0  0  0  0  0  0  0  0  0  0
    0.0000    1.6500    0.0000 H   0  0  0  0  0  0  0  0  0  0  0  0
   -1.5395    1.2375    0.0000 N   0  0  0  0  0  0  0  0  0  0  0  0
   -2.2539    0.8250    0.0000 C   0  0  0  0  0  0  0  0  0  0  0  0
   -2.2539   -0.0001    0.0000 O   0  0  0  0  0  0  0  0  0  0  0  0
   -2.9684    1.2375    0.0000 C   0  0  0  0  0  0  0  0  0  0  0  0
   -2.9684    2.0625    0.0000 C   0  0  0  0  0  0  0  0  0  0  0  0
   -2.9684    3.7125    0.0000 C   0  0  0  0  0  0  0  0  0  0  0  0
   -3.6828    3.3000    0.0000 C   0  0  0  0  0  0  0  0  0  0  0  0
   -3.6828    2.4750    0.0000 C   0  0  0  0  0  0  0  0  0  0  0  0
   -2.2539    2.4750    0.0000 C   0  0  0  0  0  0  0  0  0  0  0  0
   -2.2539    3.3000    0.0000 C   0  0  0  0  0  0  0  0  0  0  0  0
   -3.6828    0.8250    0.0000 S   0  0  0  0  0  0  0  0  0  0  0  0
   -3.6828    1.6500    0.0000 O   0  0  0  0  0  0  0  0  0  0  0  0
   -3.6828    0.0000    0.0000 O   0  0  0  0  0  0  0  0  0  0  0  0
   -4.5078    0.8250    0.0000 O   0  0  0  0  0  0  0  0  0  0  0  0
  3  1  1  0  0  0  0
  1  4  1  0  0  0  0
  4  2  1  0  0  0  0
  5  2  1  0  0  0  0
  3  2  1  0  0  0  0
  3  7  1  0  0  0  0
 10  4  2  0  0  0  0
  6  5  1  0  0  0  0
  5 11  1  6  0  0  0
  7  6  1  0  0  0  0
  8  6  1  0  0  0  0
  9  6  1  0  0  0  0
 12 11  1  0  0  0  0
 13 11  2  0  0  0  0
  3 14  1  6  0  0  0
 16 15  1  0  0  0  0
 17 16  2  0  0  0  0
  1 15  1  1  0  0  0
 16 18  1  0  0  0  0
 18 19  1  0  0  0  0
 22 19  2  0  0  0  0
 19 23  1  0  0  0  0
 20 21  2  0  0  0  0
 21 22  1  0  0  0  0
 23 24  2  0  0  0  0
 20 24  1  0  0  0  0
 18 25  1  0  0  0  0
 25 26  2  0  0  0  0
 25 27  2  0  0  0  0
 25 28  1  0  0  0  0
M  END
> <ID>
CHEBI:9322

> <NAME>
sulbenicillin

> <DEFINITION>
A penicillin antibiotic having a 6β-[phenyl(sulfo)acetamido] side-chain.

> <STAR>
3

> <SYNONYM>
Sulbenicillin; SBPC; (2S,5R,6R)-3,3-dimethyl-7-oxo-6-{[phenyl(sulfo)acetyl]amino}-4-thia-1-azabicyclo[3.2.0]heptane-2-carboxylic acid

> <IUPAC_NAME>
6beta-[phenyl(sulfo)acetamido]-2,2-dimethylpenam-3alpha-carboxylic acid

> <INN>
sulbenicillinum; sulbenicilline; sulbenicillin; sulbenicilina

> <FORMULA>
C16H18N2O7S2

> <MASS>
414.45300

> <MONOISOTOPIC_MASS>
414.05554

> <CHARGE>
0

> <SMILES>
[H][C@]12SC(C)(C)[C@@H](N1C(=O)[C@H]2NC(=O)C(c1ccccc1)S(O)(=O)=O)C(O)=O

> <INCHI>
InChI=1S/C16H18N2O7S2/c1-16(2)11(15(21)22)18-13(20)9(14(18)26-16)17-12(19)10(27(23,24)25)8-6-4-3-5-7-8/h3-7,9-11,14H,1-2H3,(H,17,19)(H,21,22)(H,23,24,25)/t9-,10?,11+,14-/m1/s1

> <INCHIKEY>
JETQIUPBHQNHNZ-OAYJICASSA-N

> <BEILSTEIN_REGISTRY_NUMBER>
1186914

> <CAS_REGISTRY_NUMBER>
41744-40-5

> <REAXYS_REGISTRY_NUMBER>
1186914

> <KEGG_COMPOUND_ACCESSION>
C11170

> <KEGG_DRUG_ACCESSION>
D08534

> <WIKIPEDIA_ACCESSION>
Sulbenicillin

> <PUBMED_CITATION>
11317344; 1384868; 3114912; 4347548; 6176550; 6668759

$$$$
null
  CDK     0224162155
null
 30 32  0  0  0  0  0  0  0  0999 V2000
    3.4214    0.9760    0.0000 C   0  0  0  0  0  0  0  0  0  0  0  0
    2.7069    0.5635    0.0000 C   0  0  0  0  0  0  0  0  0  0  0  0
    1.9924    0.9760    0.0000 C   0  0  0  0  0  0  0  0  0  0  0  0
    1.2780    0.5635    0.0000 C   0  0  0  0  0  0  0  0  0  0  0  0
    0.5635    0.9760    0.0000 N   0  0  0  0  0  0  0  0  0  0  0  0
    0.5635    1.8010    0.0000 C   0  0  1  0  0  0  0  0  0  0  0  0
   -0.2615    1.8010    0.0000 C   0  0  1  0  0  0  0  0  0  0  0  0
   -0.2615    0.9760    0.0000 C   0  0  0  0  0  0  0  0  0  0  0  0
   -0.8449    0.3926    0.0000 O   0  0  0  0  0  0  0  0  0  0  0  0
   -0.8449    2.3843    0.0000 N   0  0  0  0  0  0  0  0  0  0  0  0
   -0.6314    3.1812    0.0000 C   0  0  0  0  0  0  0  0  0  0  0  0
    0.1655    3.3948    0.0000 O   0  0  0  0  0  0  0  0  0  0  0  0
   -1.2147    3.7646    0.0000 C   0  0  0  0  0  0  0  0  0  0  0  0
   -1.0012    4.5615    0.0000 N   0  0  0  0  0  0  0  0  0  0  0  0
   -1.5846    5.1449    0.0000 O   0  0  0  0  0  0  0  0  0  0  0  0
   -2.3814    4.9313    0.0000 C   0  0  0  0  0  0  0  0  0  0  0  0
   -2.9648    5.5147    0.0000 C   0  0  0  0  0  0  0  0  0  0  0  0
   -3.7617    5.3012    0.0000 O   0  0  0  0  0  0  0  0  0  0  0  0
   -2.7513    6.3116    0.0000 O   0  0  0  0  0  0  0  0  0  0  0  0
   -2.0116    3.5511    0.0000 C   0  0  0  0  0  0  0  0  0  0  0  0
   -2.3073    2.7809    0.0000 C   0  0  0  0  0  0  0  0  0  0  0  0
   -3.1311    2.8240    0.0000 S   0  0  0  0  0  0  0  0  0  0  0  0
   -3.3447    3.6209    0.0000 C   0  0  0  0  0  0  0  0  0  0  0  0
   -2.6527    4.0703    0.0000 N   0  0  0  0  0  0  0  0  0  0  0  0
   -4.1149    3.9166    0.0000 N   0  0  0  0  0  0  0  0  0  0  0  0
    1.2780    2.2135    0.0000 S   0  0  0  0  0  0  0  0  0  0  0  0
    1.9924    1.8010    0.0000 C   0  0  0  0  0  0  0  0  0  0  0  0
    1.2780   -0.2615    0.0000 C   0  0  0  0  0  0  0  0  0  0  0  0
    0.5635   -0.6740    0.0000 O   0  0  0  0  0  0  0  0  0  0  0  0
    1.9924   -0.6740    0.0000 O   0  0  0  0  0  0  0  0  0  0  0  0
  1  2  2  0  0  0  0 
  2  3  1  0  0  0  0 
  3  4  2  0  0  0  0 
  4  5  1  0  0  0  0 
  5  6  1  0  0  0  0 
  6  7  1  0  0  0  0 
  7  8  1  0  0  0  0 
  8  5  1  0  0  0  0 
  8  9  2  0  0  0  0 
  7 10  1  1  0  0  0 
 10 11  1  0  0  0  0 
 11 12  2  0  0  0  0 
 11 13  1  0  0  0  0 
 13 14  2  0  0  0  0 
 14 15  1  4  0  0  0 
 15 16  1  0  0  0  0 
 16 17  1  0  0  0  0 
 17 18  2  0  0  0  0 
 17 19  1  0  0  0  0 
 13 20  1  0  0  0  0 
 20 21  2  0  0  0  0 
 21 22  1  0  0  0  0 
 22 23  1  0  0  0  0 
 23 24  2  0  0  0  0 
 24 20  1  0  0  0  0 
 23 25  1  0  0  0  0 
  6 26  1  1  0  0  0 
 26 27  1  0  0  0  0 
 27  3  1  0  0  0  0 
  4 28  1  0  0  0  0 
 28 29  2  0  0  0  0 
 28 30  1  0  0  0  0 
M  END
> <ID>
CHEBI:93248

> <NAME>
(6R,7R)-7-[[2-(2-amino-4-thiazolyl)-2-(carboxymethoxyimino)-1-oxoethyl]amino]-3-ethenyl-8-oxo-5-thia-1-azabicyclo[4.2.0]oct-2-ene-2-carboxylic acid

> <STAR>
2

> <FORMULA>
C16H15N5O7S2

> <MASS>
453.452

> <MONOISOTOPIC_MASS>
453.04129

> <CHARGE>
0

> <SMILES>
C=CC1=C(N2[C@@H]([C@@H](C2=O)NC(=O)C(=NOCC(=O)O)C3=CSC(=N3)N)SC1)C(=O)O

> <INCHI>
InChI=1S/C16H15N5O7S2/c1-2-6-4-29-14-10(13(25)21(14)11(6)15(26)27)19-12(24)9(20-28-3-8(22)23)7-5-30-16(17)18-7/h2,5,10,14H,1,3-4H2,(H2,17,18)(H,19,24)(H,22,23)(H,26,27)/t10-,14-/m1/s1

> <INCHIKEY>
OKBVVJOGVLARMR-QMTHXVAHSA-N

> <LINCS_ACCESSION>
LSM-3590

$$$$

Marvin  06201314162D          

 17 18  0  0  0  0            999 V2000
   13.6199   -5.5211    0.0000 C   0  0  0  0  0  0  0  0  0  0  0  0
   13.6199   -6.3461    0.0000 C   0  0  0  0  0  0  0  0  0  0  0  0
   12.9038   -6.7586    0.0000 C   0  0  0  0  0  0  0  0  0  0  0  0
   12.1918   -6.3461    0.0000 C   0  0  0  0  0  0  0  0  0  0  0  0
   12.1918   -5.5211    0.0000 C   0  0  0  0  0  0  0  0  0  0  0  0
   12.9038   -5.1086    0.0000 C   0  0  0  0  0  0  0  0  0  0  0  0
   11.4770   -5.1093    0.0000 S   0  0  0  0  0  0  0  0  0  0  0  0
   10.7629   -5.5222    0.0000 N   0  0  0  0  0  0  0  0  0  0  0  0
   10.0480   -5.1103    0.0000 C   0  0  0  0  0  0  0  0  0  0  0  0
    9.3360   -5.5235    0.0000 N   0  0  0  0  0  0  0  0  0  0  0  0
    8.6213   -5.1116    0.0000 C   0  0  0  0  0  0  0  0  0  0  0  0
    8.6206   -4.2865    0.0000 C   0  0  0  0  0  0  0  0  0  0  0  0
    9.3348   -3.8734    0.0000 C   0  0  0  0  0  0  0  0  0  0  0  0
   10.0496   -4.2854    0.0000 N   0  0  0  0  0  0  0  0  0  0  0  0
   14.3343   -6.7591    0.0000 N   0  0  0  0  0  0  0  0  0  0  0  0
   11.8895   -4.3948    0.0000 O   0  0  0  0  0  0  0  0  0  0  0  0
   11.0645   -4.3948    0.0000 O   0  0  0  0  0  0  0  0  0  0  0  0
  3  4  1  0  0  0  0
  4  5  2  0  0  0  0
  8  9  1  0  0  0  0
  5  6  1  0  0  0  0
  6  1  2  0  0  0  0
  5  7  1  0  0  0  0
  1  2  1  0  0  0  0
  9 10  2  0  0  0  0
 10 11  1  0  0  0  0
 11 12  2  0  0  0  0
 12 13  1  0  0  0  0
 13 14  2  0  0  0  0
 14  9  1  0  0  0  0
  7  8  1  0  0  0  0
  2  3  2  0  0  0  0
  2 15  1  0  0  0  0
 17  7  2  0  0  0  0
  7 16  2  0  0  0  0
M  END
> <ID>
CHEBI:9328

> <NAME>
sulfadiazine

> <DEFINITION>
A sulfonamide consisting of pyrimidine with a 4-aminobenzenesulfonamido group at the 2-position.

> <STAR>
3

> <SYNONYM>
sulphadiazine; sulfapyrimidine; Sulfadiazine; sulfadiazin; N(1)-2-pyrimidylsulfanilamide; N(1)-2-pyrimidinylsulfanilamide; 4-amino-N-2-pyrimidinylbenzenesulfonamide; 2-sulfanilylaminopyrimidine; 2-sulfanilamidopyrimidine

> <IUPAC_NAME>
4-amino-N-(pyrimidin-2-yl)benzenesulfonamide

> <INN>
sulfadiazinum; sulfadiazine; sulfadiazine; sulfadiazina

> <FORMULA>
C10H10N4O2S

> <MASS>
250.27700

> <MONOISOTOPIC_MASS>
250.05245

> <CHARGE>
0

> <SMILES>
Nc1ccc(cc1)S(=O)(=O)Nc1ncccn1

> <INCHI>
InChI=1S/C10H10N4O2S/c11-8-2-4-9(5-3-8)17(15,16)14-10-12-6-1-7-13-10/h1-7H,11H2,(H,12,13,14)

> <INCHIKEY>
SEEPANYCNGTZFQ-UHFFFAOYSA-N

> <BEILSTEIN_REGISTRY_NUMBER>
235192

> <CAS_REGISTRY_NUMBER>
68-35-9

> <GMELIN_REGISTRY_NUMBER>
219136

> <REAXYS_REGISTRY_NUMBER>
235192

> <CHEMIDPLUS>
68-35-9

> <DRUGBANK_ACCESSION>
DB00359

> <HMDB_ACCESSION>
HMDB0014503

> <KEGG_COMPOUND_ACCESSION>
C07658

> <KEGG_DRUG_ACCESSION>
D00587

> <LINCS_ACCESSION>
LSM-5457

> <NIST_CHEMISTRY_WEBBOOK>
68-35-9

> <WIKIPEDIA_ACCESSION>
Sulfadiazine

> <PUBMED_CITATION>
11431418; 12811231; 13037579; 15907564; 18706672; 20244050; 23206954; 23245764; 23270807; 23322489; 23396336; 23411088; 23411170; 23704574; 23707894; 7378112; 8429812

$$$$

Marvin  08130817232D          

 17 18  0  0  0  0            999 V2000
   -1.9687    0.3607    0.0000 S   0  0  0  0  0  0  0  0  0  0  0  0
   -2.3813    1.6302    0.0000 N   0  0  0  0  0  0  0  0  0  0  0  0
   -1.5562    1.6302    0.0000 N   0  0  0  0  0  0  0  0  0  0  0  0
   -2.6362    0.8457    0.0000 C   0  0  0  0  0  0  0  0  0  0  0  0
   -3.3506    0.4332    0.0000 C   0  0  0  0  0  0  0  0  0  0  0  0
   -1.3013    0.8457    0.0000 C   0  0  0  0  0  0  0  0  0  0  0  0
    0.8421    0.4332    0.0000 C   0  0  0  0  0  0  0  0  0  0  0  0
    1.5566    0.8457    0.0000 C   0  0  0  0  0  0  0  0  0  0  0  0
    0.8421   -0.3919    0.0000 C   0  0  0  0  0  0  0  0  0  0  0  0
    1.5566   -0.8044    0.0000 C   0  0  0  0  0  0  0  0  0  0  0  0
    2.2710    0.4332    0.0000 C   0  0  0  0  0  0  0  0  0  0  0  0
   -0.5869    0.4332    0.0000 N   0  0  0  0  0  0  0  0  0  0  0  0
    2.2710   -0.3919    0.0000 C   0  0  0  0  0  0  0  0  0  0  0  0
    2.9855   -0.8044    0.0000 N   0  0  0  0  0  0  0  0  0  0  0  0
   -0.2849    1.5601    0.0000 O   0  0  0  0  0  0  0  0  0  0  0  0
    0.1276    0.8457    0.0000 S   0  0  3  0  0  0  0  0  0  0  0  0
    0.7110    1.4290    0.0000 O   0  0  0  0  0  0  0  0  0  0  0  0
  1  6  1  0  0  0  0
  1  4  1  0  0  0  0
  6  3  2  0  0  0  0
  3  2  1  0  0  0  0
  2  4  2  0  0  0  0
  4  5  1  0  0  0  0
  6 12  1  0  0  0  0
 12 16  1  0  0  0  0
 16  7  1  0  0  0  0
  8  7  2  0  0  0  0
  7  9  1  0  0  0  0
  8 11  1  0  0  0  0
  9 10  2  0  0  0  0
 10 13  1  0  0  0  0
 13 11  2  0  0  0  0
 13 14  1  0  0  0  0
 16 15  2  0  0  0  0
 16 17  2  0  0  0  0
M  END
> <ID>
CHEBI:9331

> <NAME>
sulfamethizole

> <DEFINITION>
A sulfonamide consisting of a 1,3,4-thiadiazole nucleus with a methyl substituent at C-5 and a 4-aminobenzenesulfonamido group at C-2.

> <STAR>
3

> <SYNONYM>
sulphamethiozole; sulphamethazole; sulfamethylthiadiazole; Sulfamethizole

> <IUPAC_NAME>
4-amino-N-(5-methyl-1,3,4-thiadiazol-2-yl)benzenesulfonamide

> <INN>
sulfametizol; sulfamethizolum; sulfamethizole; sulfamethizol

> <BRAND_NAME>
Rufol

> <FORMULA>
C9H10N4O2S2

> <MASS>
270.33346

> <MONOISOTOPIC_MASS>
270.02452

> <CHARGE>
0

> <SMILES>
Cc1nnc(NS(=O)(=O)c2ccc(N)cc2)s1

> <INCHI>
InChI=1S/C9H10N4O2S2/c1-6-11-12-9(16-6)13-17(14,15)8-4-2-7(10)3-5-8/h2-5H,10H2,1H3,(H,12,13)

> <INCHIKEY>
VACCAVUAMIDAGB-UHFFFAOYSA-N

> <BEILSTEIN_REGISTRY_NUMBER>
255002

> <CAS_REGISTRY_NUMBER>
144-82-1

> <REAXYS_REGISTRY_NUMBER>
255002

> <CHEMIDPLUS>
144-82-1

> <DRUGBANK_ACCESSION>
DB00576

> <KEGG_COMPOUND_ACCESSION>
C08050

> <KEGG_DRUG_ACCESSION>
D00870

> <LINCS_ACCESSION>
LSM-5455

> <WIKIPEDIA_ACCESSION>
Sulfamethizole

> <PUBMED_CITATION>
11431418; 17180970; 20303138; 21275251

$$$$

Ketcher 04181617162D 1   1.00000     0.00000     0

 17 18  0     0  0            999 V2000
   10.6619   -7.8181    0.0000 C   0  0  0  0  0  0  0  0  0  0  0  0
   10.6619   -8.8180    0.0000 C   0  0  0  0  0  0  0  0  0  0  0  0
    9.7960   -9.3180    0.0000 C   0  0  0  0  0  0  0  0  0  0  0  0
    8.9300   -8.8180    0.0000 C   0  0  0  0  0  0  0  0  0  0  0  0
    8.9300   -7.8181    0.0000 C   0  0  0  0  0  0  0  0  0  0  0  0
    9.7960   -7.3181    0.0000 C   0  0  0  0  0  0  0  0  0  0  0  0
   11.5279   -7.3181    0.0000 S   0  0  0  0  0  0  0  0  0  0  0  0
    8.0641   -9.3180    0.0000 N   0  0  0  0  0  0  0  0  0  0  0  0
   12.3939   -7.8181    0.0000 N   0  0  0  0  0  0  0  0  0  0  0  0
   13.2610   -7.3179    0.0000 C   0  0  0  0  0  0  0  0  0  0  0  0
   11.0279   -6.4521    0.0000 O   0  0  0  0  0  0  0  0  0  0  0  0
   12.0279   -6.4521    0.0000 O   0  0  0  0  0  0  0  0  0  0  0  0
   13.2545   -6.3180    0.0000 C   0  0  0  0  0  0  0  0  0  0  0  0
   14.2140   -7.6207    0.0000 N   0  0  0  0  0  0  0  0  0  0  0  0
   14.2034   -6.0028    0.0000 C   0  0  0  0  0  0  0  0  0  0  0  0
   14.7966   -6.8078    0.0000 O   0  0  0  0  0  0  0  0  0  0  0  0
   14.5062   -5.0498    0.0000 C   0  0  0  0  0  0  0  0  0  0  0  0
  1  2  1  0     0  0
  2  3  2  0     0  0
  3  4  1  0     0  0
  4  5  2  0     0  0
  5  6  1  0     0  0
  6  1  2  0     0  0
  1  7  1  0     0  0
  4  8  1  0     0  0
  9 10  1  0     0  0
  9  7  1  0     0  0
 11  7  2  0     0  0
 12  7  2  0     0  0
 13 10  1  0     0  0
 14 10  2  0     0  0
 15 13  2  0     0  0
 16 14  1  0     0  0
 16 15  1  0     0  0
 15 17  1  0     0  0
M  END
> <ID>
CHEBI:9332

> <NAME>
sulfamethoxazole

> <DEFINITION>
An isoxazole (1,2-oxazole) compound having a methyl substituent at the 5-position and a 4-aminobenzenesulfonamido group at the 3-position.

> <STAR>
3

> <SECONDARY_ID>
CHEBI:102247

> <SYNONYM>
sulphamethoxazole; Sulfamethoxazole; SMX; Gantanol (TN); 4-Amino-N-(5-methyl-3-isoxazolyl)benzenesulfonamide; 3-Sulfanilamido-5-methylisoxazole; 3-(p-Aminophenylsulfonamido)-5-methylisoxazole

> <IUPAC_NAME>
4-amino-N-(5-methyl-1,2-oxazol-3-yl)benzenesulfonamide

> <FORMULA>
C10H11N3O3S

> <MASS>
253.279

> <MONOISOTOPIC_MASS>
253.05211

> <CHARGE>
0

> <SMILES>
C=1(C=CC(=CC1)N)S(NC=2C=C(ON2)C)(=O)=O

> <INCHI>
InChI=1S/C10H11N3O3S/c1-7-6-10(12-16-7)13-17(14,15)9-4-2-8(11)3-5-9/h2-6H,11H2,1H3,(H,12,13)

> <INCHIKEY>
JLKIGFTWXXRPMT-UHFFFAOYSA-N

> <CAS_REGISTRY_NUMBER>
723-46-6

> <GMELIN_REGISTRY_NUMBER>
226453

> <REAXYS_REGISTRY_NUMBER>
226453

> <CHEMIDPLUS>
723-46-6

> <DRUGBANK_ACCESSION>
DB01015

> <HMDB_ACCESSION>
HMDB0015150

> <KEGG_COMPOUND_ACCESSION>
C07315

> <KEGG_DRUG_ACCESSION>
D00447

> <LINCS_ACCESSION>
LSM-5422

> <WIKIPEDIA_ACCESSION>
Sulfamethoxazole

> <PUBMED_CITATION>
10843725; 11350866; 11431418; 12019187; 15497867; 15588915; 15967282; 15984773; 17095123; 17442935; 17573190; 18334600; 18958736; 19436870; 20564608; 22534821; 226453; 23611245; 23649399; 23742687; 25851465; 313909; 7486915; 7534104; 7602118; 7798534; 8208693; 10891117; 10969989; 17110110; 17158933; 17311370; 3906132; 6864729; 7490723; 7731020; 8632413

$$$$

Marvin  01261111232D          

 28 30  0  0  0  0            999 V2000
   17.7326   -9.2768    0.0000 C   0  0  0  0  0  0  0  0  0  0  0  0
   18.4412   -8.8604    0.0000 S   0  0  0  0  0  0  0  0  0  0  0  0
   17.7326  -10.0986    0.0000 C   0  0  0  0  0  0  0  0  0  0  0  0
   17.0204   -8.8604    0.0000 C   0  0  0  0  0  0  0  0  0  0  0  0
   19.1571   -9.2768    0.0000 N   0  0  0  0  0  0  0  0  0  0  0  0
   17.7290   -8.2760    0.0000 O   0  0  0  0  0  0  0  0  0  0  0  0
   19.1790   -8.2760    0.0000 O   0  0  0  0  0  0  0  0  0  0  0  0
   17.0204  -10.5076    0.0000 C   0  0  0  0  0  0  0  0  0  0  0  0
   16.3118   -9.2768    0.0000 C   0  0  0  0  0  0  0  0  0  0  0  0
   19.8693   -8.8604    0.0000 C   0  0  0  0  0  0  0  0  0  0  0  0
   16.3118  -10.0986    0.0000 C   0  0  0  0  0  0  0  0  0  0  0  0
   19.8620   -8.0386    0.0000 C   0  0  0  0  0  0  0  0  0  0  0  0
   20.5815   -9.2695    0.0000 N   0  0  0  0  0  0  0  0  0  0  0  0
   15.5959  -10.5076    0.0000 N   0  0  0  0  0  0  0  0  0  0  0  0
   20.5742   -7.6258    0.0000 C   0  0  0  0  0  0  0  0  0  0  0  0
   21.2937   -8.8568    0.0000 C   0  0  0  0  0  0  0  0  0  0  0  0
   14.7705  -10.0730    0.0000 N   0  0  0  0  0  0  0  0  0  0  0  0
   21.2901   -8.0350    0.0000 C   0  0  0  0  0  0  0  0  0  0  0  0
   13.9633  -10.5406    0.0000 C   0  0  0  0  0  0  0  0  0  0  0  0
   13.9633  -11.4755    0.0000 C   0  0  0  0  0  0  0  0  0  0  0  0
   13.1562  -10.0730    0.0000 C   0  0  0  0  0  0  0  0  0  0  0  0
   13.1562  -11.9430    0.0000 C   0  0  0  0  0  0  0  0  0  0  0  0
   12.3452  -10.5406    0.0000 C   0  0  0  0  0  0  0  0  0  0  0  0
   12.3490  -11.4755    0.0000 C   0  0  0  0  0  0  0  0  0  0  0  0
   13.1562  -12.8781    0.0000 C   0  0  0  0  0  0  0  0  0  0  0  0
   11.5381  -11.9468    0.0000 O   0  0  0  0  0  0  0  0  0  0  0  0
   13.9670  -13.3455    0.0000 O   0  0  0  0  0  0  0  0  0  0  0  0
   12.3490  -13.3455    0.0000 O   0  0  0  0  0  0  0  0  0  0  0  0
  1  2  1  0  0  0  0
  1  3  1  0  0  0  0
  1  4  2  0  0  0  0
  2  5  1  0  0  0  0
  2  6  2  0  0  0  0
  2  7  2  0  0  0  0
  3  8  2  0  0  0  0
  4  9  1  0  0  0  0
  5 10  1  0  0  0  0
  8 11  1  0  0  0  0
 10 12  1  0  0  0  0
 10 13  2  0  0  0  0
 11 14  1  0  0  0  0
 12 15  2  0  0  0  0
 13 16  1  0  0  0  0
 14 17  2  0  0  0  0
 15 18  1  0  0  0  0
 17 19  1  0  0  0  0
 19 20  1  0  0  0  0
 19 21  2  0  0  0  0
 20 22  2  0  0  0  0
 21 23  1  0  0  0  0
 22 24  1  0  0  0  0
 22 25  1  0  0  0  0
 24 26  1  0  0  0  0
 25 27  1  0  0  0  0
 25 28  2  0  0  0  0
  9 11  2  0  0  0  0
 16 18  2  0  0  0  0
 23 24  2  0  0  0  0
M  END
> <ID>
CHEBI:9334

> <NAME>
sulfasalazine

> <DEFINITION>
An azobenzene consisting of diphenyldiazene having a carboxy substituent at the 4-position, a hydroxy substituent at the 3-position and a 2-pyridylaminosulphonyl substituent at the 4'-position.

> <STAR>
3

> <SECONDARY_ID>
CHEBI:101223

> <SYNONYM>
Sulfasalazine; Salicylazosulfapyridine; Salazosulfapyridine; 5-(p-(2-Pyridylsulfamyl)phenylazo)salicylic acid; 5-(4-(2-Pyridylsulfamoyl)phenylazo)-2-hydroxybenzoic acid; 5-((p-(2-Pyridylsulfamoyl)phenyl)azo)salicylic acid; 4-(Pyridyl-2-amidosulfonyl)-3'-carboxy-4'-hydroxyazobenzene; 2-Hydroxy-5-[4-(pyridin-2-ylsulfamoyl)-phenylazo]-benzoic acid; 2-Hydroxy-5-((4-((2-pyridinylamino)sulfonyl)phenyl)azo)benzoic acid

> <IUPAC_NAME>
2-hydroxy-5-{[4-(pyridin-2-ylsulfamoyl)phenyl]diazenyl}benzoic acid

> <INN>
Sulfasalazinum; sulfasalazine; Sulfasalazina; Salazosulfapyridinum; Salazosulfapiridina

> <BRAND_NAME>
Azulfidine

> <FORMULA>
C18H14N4O5S

> <MASS>
398.39300

> <MONOISOTOPIC_MASS>
398.06849

> <CHARGE>
0

> <SMILES>
OC(=O)c1cc(ccc1O)\N=N\c1ccc(cc1)S(=O)(=O)Nc1ccccn1

> <INCHI>
InChI=1S/C18H14N4O5S/c23-16-9-6-13(11-15(16)18(24)25)21-20-12-4-7-14(8-5-12)28(26,27)22-17-3-1-2-10-19-17/h1-11,23H,(H,19,22)(H,24,25)/b21-20+

> <INCHIKEY>
NCEXYHBECQHGNR-QZQOTICOSA-N

> <BEILSTEIN_REGISTRY_NUMBER>
8132868

> <CAS_REGISTRY_NUMBER>
599-79-1

> <GMELIN_REGISTRY_NUMBER>
2666050

> <REAXYS_REGISTRY_NUMBER>
8132868

> <CHEMIDPLUS>
599-79-1

> <DRUGBANK_ACCESSION>
DB00795

> <KEGG_COMPOUND_ACCESSION>
C07316

> <KEGG_DRUG_ACCESSION>
D00448

> <PDBECHEM_ACCESSION>
SAS

> <PUBMED_CITATION>
11362329; 11485124; 11587223; 14981898; 15248210; 16322111; 17386570; 2434548; 7720170

$$$$

Ketcher 04181617042D 1   1.00000     0.00000     0

 16 17  0     0  0            999 V2000
    8.1170   -8.1319    0.0000 C   0  0  0  0  0  0  0  0  0  0  0  0
    8.1170   -9.1318    0.0000 C   0  0  0  0  0  0  0  0  0  0  0  0
    7.2510   -9.6318    0.0000 C   0  0  0  0  0  0  0  0  0  0  0  0
    6.3851   -9.1318    0.0000 C   0  0  0  0  0  0  0  0  0  0  0  0
    6.3851   -8.1319    0.0000 C   0  0  0  0  0  0  0  0  0  0  0  0
    7.2510   -7.6319    0.0000 C   0  0  0  0  0  0  0  0  0  0  0  0
    8.9830   -7.6319    0.0000 S   0  0  0  0  0  0  0  0  0  0  0  0
    5.5191   -9.6318    0.0000 N   0  0  0  0  0  0  0  0  0  0  0  0
    9.8490   -8.1319    0.0000 N   0  0  0  0  0  0  0  0  0  0  0  0
   10.7156   -7.6314    0.0000 C   0  0  0  0  0  0  0  0  0  0  0  0
    8.4830   -6.7659    0.0000 O   0  0  0  0  0  0  0  0  0  0  0  0
    9.4830   -6.7659    0.0000 O   0  0  0  0  0  0  0  0  0  0  0  0
   10.7103   -6.6314    0.0000 N   0  0  0  0  0  0  0  0  0  0  0  0
   11.6682   -7.9354    0.0000 S   0  0  0  0  0  0  0  0  0  0  0  0
   11.6597   -6.3175    0.0000 C   0  0  0  0  0  0  0  0  0  0  0  0
   12.2517   -7.1232    0.0000 C   0  0  0  0  0  0  0  0  0  0  0  0
  1  2  1  0     0  0
  2  3  2  0     0  0
  3  4  1  0     0  0
  4  5  2  0     0  0
  5  6  1  0     0  0
  6  1  2  0     0  0
  1  7  1  0     0  0
  4  8  1  0     0  0
  9 10  1  0     0  0
  9  7  1  0     0  0
 11  7  2  0     0  0
 12  7  2  0     0  0
 13 10  2  0     0  0
 14 10  1  0     0  0
 15 13  1  0     0  0
 16 14  1  0     0  0
 16 15  2  0     0  0
M  END
> <ID>
CHEBI:9337

> <NAME>
sulfathiazole

> <DEFINITION>
A 1,3-thiazole compound having a 4-aminobenzenesulfonamido group at the 2-position.

> <STAR>
3

> <SYNONYM>
Sulphathiazole; sulfthiazole; Sulfanilamidothiazole; N(1)-2-Thiazolylsulfanilamide; 4-Amino-N-2-thiazolylbenzenesulfonamide; 2-Sulfonamidothiazole; 2-Sulfanilamidothiazole; 2-Sulfanilamidothiazol; 2-(Sulfanilylamino)thiazole; 2-(p-Aminobenzenesulphonamido)thiazole; 2-(p-Aminobenzenesulfonamido)thiazole

> <IUPAC_NAME>
4-amino-N-1,3-thiazol-2-ylbenzenesulfonamide

> <INN>
Sulfatiazol; sulfathiazolum; sulfathiazole; sulfathiazol

> <FORMULA>
C9H9N3O2S2; C9H9N3O2S2

> <MASS>
255.319

> <MONOISOTOPIC_MASS>
255.01362

> <CHARGE>
0

> <SMILES>
C=1(C=CC(=CC1)N)S(NC2=NC=CS2)(=O)=O

> <INCHI>
InChI=1S/C9H9N3O2S2/c10-7-1-3-8(4-2-7)16(13,14)12-9-11-5-6-15-9/h1-6H,10H2,(H,11,12)

> <INCHIKEY>
JNMRHUJNCSQMMB-UHFFFAOYSA-N

> <BEILSTEIN_REGISTRY_NUMBER>
226178

> <CAS_REGISTRY_NUMBER>
72-14-0

> <GMELIN_REGISTRY_NUMBER>
218965

> <REAXYS_REGISTRY_NUMBER>
226178

> <CHEMIDPLUS>
72-14-0

> <DRUGBANK_ACCESSION>
DB06147

> <HMDB_ACCESSION>
HMDB0015619

> <KEGG_COMPOUND_ACCESSION>
C11169

> <KEGG_DRUG_ACCESSION>
D01047

> <LINCS_ACCESSION>
LSM-5327

> <NIST_CHEMISTRY_WEBBOOK>
72-14-0

> <WIKIPEDIA_ACCESSION>
Sulfathiazole

> <PUBMED_CITATION>
11431418; 7486915

$$$$

Marvin  06091013202D          

 18 19  0  0  0  0            999 V2000
    3.0954   -7.0786    0.0000 C   0  0  0  0  0  0  0  0  0  0  0  0
    3.8139   -6.6650    0.0000 C   0  0  0  0  0  0  0  0  0  0  0  0
    6.6821   -9.1468    0.0000 C   0  0  0  0  0  0  0  0  0  0  0  0
    2.3836   -6.7229    0.0000 S   0  0  0  0  0  0  0  0  0  0  0  0
    6.6852   -8.3128    0.0000 C   0  0  0  0  0  0  0  0  0  0  0  0
    4.5402   -7.0792    0.0000 C   0  0  0  0  0  0  0  0  0  0  0  0
    5.9625   -7.8965    0.0000 C   0  0  0  0  0  0  0  0  0  0  0  0
    3.0316   -7.8902    0.0000 C   0  0  0  0  0  0  0  0  0  0  0  0
    1.8137   -7.3283    0.0000 C   0  0  0  0  0  0  0  0  0  0  0  0
    3.8139   -5.8422    0.0000 O   0  0  0  0  0  0  0  0  0  0  0  0
    7.4048   -9.5632    0.0000 O   0  0  0  0  0  0  0  0  0  0  0  0
    2.2098   -8.0331    0.0000 C   0  0  0  0  0  0  0  0  0  0  0  0
    5.2553   -6.6677    0.0000 C   0  0  0  0  0  0  0  0  0  0  0  0
    4.5372   -7.9132    0.0000 C   0  0  0  0  0  0  0  0  0  0  0  0
    5.9672   -7.0902    0.0000 C   0  0  0  0  0  0  0  0  0  0  0  0
    5.2475   -8.3080    0.0000 C   0  0  0  0  0  0  0  0  0  0  0  0
    5.9671   -9.5584    0.0000 O   0  0  0  0  0  0  0  0  0  0  0  0
    7.3966   -7.9034    0.0000 C   0  0  0  0  0  0  0  0  0  0  0  0
  2  1  1  0  0  0  0
  3  5  1  0  0  0  0
  4  1  1  0  0  0  0
  5  7  1  0  0  0  0
  6  2  1  0  0  0  0
  7 16  2  0  0  0  0
  8  1  2  0  0  0  0
  9  4  1  0  0  0  0
 10  2  2  0  0  0  0
 11  3  2  0  0  0  0
 12  8  1  0  0  0  0
 13  6  1  0  0  0  0
 14  6  2  0  0  0  0
 15 13  2  0  0  0  0
 16 14  1  0  0  0  0
 17  3  1  0  0  0  0
 18  5  1  0  0  0  0
  9 12  2  0  0  0  0
  7 15  1  0  0  0  0
M  END
> <ID>
CHEBI:9362

> <NAME>
suprofen

> <DEFINITION>
An aromatic ketone that is thiophene substituted at C-2 by a 4-(1-carboxyethyl)benzoyl group.

> <STAR>
3

> <SECONDARY_ID>
CHEBI:193117

> <SYNONYM>
SUTOPROFEN; PROFENAL; p-2-thenoylhydratropic acid; alpha-methyl-4-(2-thienylcarbonyl)benzeneacetic acid; 4-(2-Thenoyl)hydratropsaeure; 2-[4-(Thiophene-2-carbonyl)-phenyl]-propionic acid; 2-(4-(2-Thenoyl)phenyl)propionsaeure; (+-)-2-(p-(2-thenoyl)phenyl)propionic acid

> <IUPAC_NAME>
2-[4-(thiophen-2-ylcarbonyl)phenyl]propanoic acid

> <INN>
suprofenum; suprofene; suprofen

> <FORMULA>
C14H12O3S

> <MASS>
260.30800

> <MONOISOTOPIC_MASS>
260.05072

> <CHARGE>
0

> <SMILES>
CC(C(O)=O)c1ccc(cc1)C(=O)c1cccs1

> <INCHI>
InChI=1S/C14H12O3S/c1-9(14(16)17)10-4-6-11(7-5-10)13(15)12-3-2-8-18-12/h2-9H,1H3,(H,16,17)

> <INCHIKEY>
MDKGKXOCJGEUJW-UHFFFAOYSA-N

> <BEILSTEIN_REGISTRY_NUMBER>
1430606

> <CAS_REGISTRY_NUMBER>
40828-46-4

> <REAXYS_REGISTRY_NUMBER>
1430606

> <DRUGBANK_ACCESSION>
DB00870

> <KEGG_COMPOUND_ACCESSION>
C07320

> <KEGG_DRUG_ACCESSION>
D00452

> <LINCS_ACCESSION>
LSM-4406

> <WIKIPEDIA_ACCESSION>
Suprofen

> <PUBMED_CITATION>
11195850; 11409928; 14570769; 14664336; 27559371; 7918773; 8058269

$$$$
null
  CDK     0224162159
null
 28 31  0  0  0  0  0  0  0  0999 V2000
   -3.3007   -1.0213    0.0000 C   0  0  0  0  0  0  0  0  0  0  0  0
   -2.9261   -1.7564    0.0000 C   0  0  0  0  0  0  0  0  0  0  0  0
   -2.1113   -1.8855    0.0000 C   0  0  0  0  0  0  0  0  0  0  0  0
   -1.9822   -2.7003    0.0000 C   0  0  0  0  0  0  0  0  0  0  0  0
   -2.7173   -3.0749    0.0000 N   0  0  0  0  0  0  0  0  0  0  0  0
   -3.3007   -2.4915    0.0000 O   0  0  0  0  0  0  0  0  0  0  0  0
   -1.2471   -3.0749    0.0000 C   0  0  0  0  0  0  0  0  0  0  0  0
   -0.5552   -2.6255    0.0000 C   0  0  0  0  0  0  0  0  0  0  0  0
    0.1798   -3.0001    0.0000 C   0  0  0  0  0  0  0  0  0  0  0  0
    0.2230   -3.8240    0.0000 C   0  0  0  0  0  0  0  0  0  0  0  0
   -0.4689   -4.2733    0.0000 C   0  0  0  0  0  0  0  0  0  0  0  0
   -1.2040   -3.8987    0.0000 C   0  0  0  0  0  0  0  0  0  0  0  0
   -1.5279   -1.3021    0.0000 C   0  0  0  0  0  0  0  0  0  0  0  0
   -1.7414   -0.5052    0.0000 O   0  0  0  0  0  0  0  0  0  0  0  0
   -0.7310   -1.5156    0.0000 N   0  0  0  0  0  0  0  0  0  0  0  0
   -0.1477   -0.9323    0.0000 C   0  0  0  0  0  0  0  0  0  0  0  0
    0.6773   -0.9323    0.0000 C   0  0  0  0  0  0  0  0  0  0  0  0
    0.6773   -0.1073    0.0000 N   0  0  0  0  0  0  0  0  0  0  0  0
   -0.1477   -0.1073    0.0000 C   0  0  0  0  0  0  0  0  0  0  0  0
   -0.7310    0.4761    0.0000 O   0  0  0  0  0  0  0  0  0  0  0  0
    1.4620    0.1477    0.0000 C   0  0  0  0  0  0  0  0  0  0  0  0
    1.9469   -0.5198    0.0000 C   0  0  0  0  0  0  0  0  0  0  0  0
    1.4620   -1.1872    0.0000 S   0  0  0  0  0  0  0  0  0  0  0  0
    2.6656   -0.1148    0.0000 C   0  0  0  0  0  0  0  0  0  0  0  0
    2.6656   -0.9248    0.0000 C   0  0  0  0  0  0  0  0  0  0  0  0
    1.7169    0.9323    0.0000 C   0  0  0  0  0  0  0  0  0  0  0  0
    1.1649    1.5454    0.0000 O   0  0  0  0  0  0  0  0  0  0  0  0
    2.5239    1.1038    0.0000 O   0  0  0  0  0  0  0  0  0  0  0  0
  1  2  1  0  0  0  0 
  2  3  2  0  0  0  0 
  3  4  1  0  0  0  0 
  4  5  2  0  0  0  0 
  5  6  1  0  0  0  0 
  6  2  1  0  0  0  0 
  4  7  1  0  0  0  0 
  7  8  2  0  0  0  0 
  8  9  1  0  0  0  0 
  9 10  2  0  0  0  0 
 10 11  1  0  0  0  0 
 11 12  2  0  0  0  0 
 12  7  1  0  0  0  0 
  3 13  1  0  0  0  0 
 13 14  2  0  0  0  0 
 13 15  1  0  0  0  0 
 15 16  1  0  0  0  0 
 16 17  1  0  0  0  0 
 17 18  1  0  0  0  0 
 18 19  1  0  0  0  0 
 19 16  1  0  0  0  0 
 19 20  2  0  0  0  0 
 18 21  1  0  0  0  0 
 21 22  1  0  0  0  0 
 22 23  1  0  0  0  0 
 23 17  1  0  0  0  0 
 22 24  1  0  0  0  0 
 22 25  1  0  0  0  0 
 21 26  1  0  0  0  0 
 26 27  2  0  0  0  0 
 26 28  1  0  0  0  0 
M  END
> <ID>
CHEBI:94315

> <NAME>
3,3-dimethyl-6-[[(5-methyl-3-phenyl-4-isoxazolyl)-oxomethyl]amino]-7-oxo-4-thia-1-azabicyclo[3.2.0]heptane-2-carboxylic acid

> <STAR>
2

> <FORMULA>
C19H19N3O5S

> <MASS>
401.438

> <MONOISOTOPIC_MASS>
401.10454

> <CHARGE>
0

> <SMILES>
CC1=C(C(=NO1)C2=CC=CC=C2)C(=O)NC3C4N(C3=O)C(C(S4)(C)C)C(=O)O

> <INCHI>
InChI=1S/C19H19N3O5S/c1-9-11(12(21-27-9)10-7-5-4-6-8-10)15(23)20-13-16(24)22-14(18(25)26)19(2,3)28-17(13)22/h4-8,13-14,17H,1-3H3,(H,20,23)(H,25,26)

> <INCHIKEY>
UWYHMGVUTGAWSP-UHFFFAOYSA-N

> <LINCS_ACCESSION>
LSM-4952

$$$$
null
  CDK     0224162159
null
 34 38  0  0  0  0  0  0  0  0999 V2000
    0.9199    2.9297    0.0000 C   0  0  0  0  0  0  0  0  0  0  0  0
    0.3068    2.3777    0.0000 C   0  0  0  0  0  0  0  0  0  0  0  0
   -0.1781    1.7103    0.0000 C   0  0  1  0  0  0  0  0  0  0  0  0
   -0.9628    1.9652    0.0000 N   0  0  0  0  0  0  0  0  0  0  0  0
   -0.9628    2.7902    0.0000 C   0  0  1  0  0  0  0  0  0  0  0  0
   -0.1781    3.0451    0.0000 S   0  0  0  0  0  0  0  0  0  0  0  0
   -1.7878    2.7902    0.0000 C   0  0  1  0  0  0  0  0  0  0  0  0
   -1.7878    1.9652    0.0000 C   0  0  0  0  0  0  0  0  0  0  0  0
   -2.3711    1.3818    0.0000 O   0  0  0  0  0  0  0  0  0  0  0  0
   -2.3711    3.3736    0.0000 N   0  0  0  0  0  0  0  0  0  0  0  0
   -3.1680    3.1600    0.0000 C   0  0  0  0  0  0  0  0  0  0  0  0
   -3.3815    2.3632    0.0000 O   0  0  0  0  0  0  0  0  0  0  0  0
   -3.7514    3.7434    0.0000 C   0  0  1  0  0  0  0  0  0  0  0  0
   -4.5483    3.5299    0.0000 C   0  0  0  0  0  0  0  0  0  0  0  0
   -4.7618    2.7330    0.0000 C   0  0  0  0  0  0  0  0  0  0  0  0
   -5.5587    2.5195    0.0000 C   0  0  0  0  0  0  0  0  0  0  0  0
   -6.1420    3.1028    0.0000 C   0  0  0  0  0  0  0  0  0  0  0  0
   -5.9285    3.8997    0.0000 C   0  0  0  0  0  0  0  0  0  0  0  0
   -5.1316    4.1132    0.0000 C   0  0  0  0  0  0  0  0  0  0  0  0
   -3.5378    4.5403    0.0000 N   0  0  0  0  0  0  0  0  0  0  0  0
    0.0768    0.9256    0.0000 C   0  0  0  0  0  0  0  0  0  0  0  0
   -0.4752    0.3126    0.0000 O   0  0  0  0  0  0  0  0  0  0  0  0
    0.8838    0.7541    0.0000 O   0  0  0  0  0  0  0  0  0  0  0  0
    1.1387   -0.0305    0.0000 C   0  0  0  0  0  0  0  0  0  0  0  0
    1.9233   -0.2854    0.0000 C   0  0  0  0  0  0  0  0  0  0  0  0
    2.6378    0.1271    0.0000 C   0  0  0  0  0  0  0  0  0  0  0  0
    3.3523   -0.2854    0.0000 C   0  0  0  0  0  0  0  0  0  0  0  0
    3.3523   -1.1104    0.0000 C   0  0  0  0  0  0  0  0  0  0  0  0
    2.6378   -1.5229    0.0000 C   0  0  0  0  0  0  0  0  0  0  0  0
    1.9233   -1.1104    0.0000 C   0  0  0  0  0  0  0  0  0  0  0  0
    1.1387   -1.3654    0.0000 C   0  0  0  0  0  0  0  0  0  0  0  0
    0.8838   -2.1500    0.0000 O   0  0  0  0  0  0  0  0  0  0  0  0
    0.6538   -0.6979    0.0000 O   0  0  0  0  0  0  0  0  0  0  0  0
    0.9199    1.8257    0.0000 C   0  0  0  0  0  0  0  0  0  0  0  0
  1  2  1  0  0  0  0 
  2  3  1  0  0  0  0 
  3  4  1  0  0  0  0 
  4  5  1  0  0  0  0 
  5  6  1  6  0  0  0 
  6  2  1  0  0  0  0 
  5  7  1  0  0  0  0 
  7  8  1  0  0  0  0 
  8  4  1  0  0  0  0 
  8  9  2  0  0  0  0 
  7 10  1  1  0  0  0 
 10 11  1  0  0  0  0 
 11 12  2  0  0  0  0 
 11 13  1  0  0  0  0 
 13 14  1  0  0  0  0 
 14 15  2  0  0  0  0 
 15 16  1  0  0  0  0 
 16 17  2  0  0  0  0 
 17 18  1  0  0  0  0 
 18 19  2  0  0  0  0 
 19 14  1  0  0  0  0 
 13 20  1  1  0  0  0 
  3 21  1  6  0  0  0 
 21 22  2  0  0  0  0 
 21 23  1  0  0  0  0 
 23 24  1  0  0  0  0 
 24 25  1  0  0  0  0 
 25 26  2  0  0  0  0 
 26 27  1  0  0  0  0 
 27 28  2  0  0  0  0 
 28 29  1  0  0  0  0 
 29 30  2  0  0  0  0 
 30 25  1  0  0  0  0 
 30 31  1  0  0  0  0 
 31 32  2  0  0  0  0 
 31 33  1  0  0  0  0 
 33 24  1  0  0  0  0 
  2 34  1  0  0  0  0 
M  END
> <ID>
CHEBI:94319

> <NAME>
(3-oxo-1H-2-benzofuran-1-yl) (2S,5S,6R)-6-[[(2R)-2-amino-2-phenylacetyl]amino]-3,3-dimethyl-7-oxo-4-thia-1-azabicyclo[3.2.0]heptane-2-carboxylate

> <STAR>
2

> <FORMULA>
C24H23N3O6S

> <MASS>
481.523

> <MONOISOTOPIC_MASS>
481.13076

> <CHARGE>
0

> <SMILES>
CC1([C@@H](N2[C@@H](S1)[C@@H](C2=O)NC(=O)[C@@H](C3=CC=CC=C3)N)C(=O)OC4C5=CC=CC=C5C(=O)O4)C

> <INCHI>
InChI=1S/C24H23N3O6S/c1-24(2)17(22(31)33-23-14-11-7-6-10-13(14)21(30)32-23)27-19(29)16(20(27)34-24)26-18(28)15(25)12-8-4-3-5-9-12/h3-11,15-17,20,23H,25H2,1-2H3,(H,26,28)/t15-,16-,17+,20+,23?/m1/s1

> <INCHIKEY>
SOROUYSPFADXSN-NXTKQQBESA-N

> <LINCS_ACCESSION>
LSM-4962

$$$$
null
  CDK     0224162159
null
 24 26  0  0  0  0  0  0  0  0999 V2000
    2.5600    1.8968    0.0000 C   0  0  0  0  0  0  0  0  0  0  0  0
    1.9469    1.3448    0.0000 C   0  0  0  0  0  0  0  0  0  0  0  0
    1.4620    0.6773    0.0000 C   0  0  0  0  0  0  0  0  0  0  0  0
    0.6773    0.9323    0.0000 N   0  0  0  0  0  0  0  0  0  0  0  0
    0.6773    1.7573    0.0000 C   0  0  0  0  0  0  0  0  0  0  0  0
    1.4620    2.0122    0.0000 S   0  0  0  0  0  0  0  0  0  0  0  0
   -0.1477    1.7573    0.0000 C   0  0  0  0  0  0  0  0  0  0  0  0
   -0.1477    0.9323    0.0000 C   0  0  0  0  0  0  0  0  0  0  0  0
   -0.7310    0.3489    0.0000 O   0  0  0  0  0  0  0  0  0  0  0  0
   -0.7310    2.3406    0.0000 N   0  0  0  0  0  0  0  0  0  0  0  0
   -1.5279    2.1271    0.0000 C   0  0  0  0  0  0  0  0  0  0  0  0
   -1.7414    1.3302    0.0000 O   0  0  0  0  0  0  0  0  0  0  0  0
   -2.1113    2.7105    0.0000 C   0  0  0  0  0  0  0  0  0  0  0  0
   -2.9082    2.4970    0.0000 C   0  0  0  0  0  0  0  0  0  0  0  0
   -3.1217    1.7001    0.0000 C   0  0  0  0  0  0  0  0  0  0  0  0
   -3.9186    1.4865    0.0000 C   0  0  0  0  0  0  0  0  0  0  0  0
   -4.5019    2.0699    0.0000 C   0  0  0  0  0  0  0  0  0  0  0  0
   -4.2884    2.8668    0.0000 C   0  0  0  0  0  0  0  0  0  0  0  0
   -3.4915    3.0803    0.0000 C   0  0  0  0  0  0  0  0  0  0  0  0
   -1.8977    3.5074    0.0000 N   0  0  0  0  0  0  0  0  0  0  0  0
    1.7169   -0.1073    0.0000 C   0  0  0  0  0  0  0  0  0  0  0  0
    2.5239   -0.2788    0.0000 O   0  0  0  0  0  0  0  0  0  0  0  0
    1.1649   -0.7204    0.0000 O   0  0  0  0  0  0  0  0  0  0  0  0
    2.5600    0.7927    0.0000 C   0  0  0  0  0  0  0  0  0  0  0  0
  1  2  1  0  0  0  0 
  2  3  1  0  0  0  0 
  3  4  1  0  0  0  0 
  4  5  1  0  0  0  0 
  5  6  1  0  0  0  0 
  6  2  1  0  0  0  0 
  5  7  1  0  0  0  0 
  7  8  1  0  0  0  0 
  8  4  1  0  0  0  0 
  8  9  2  0  0  0  0 
  7 10  1  0  0  0  0 
 10 11  1  0  0  0  0 
 11 12  2  0  0  0  0 
 11 13  1  0  0  0  0 
 13 14  1  0  0  0  0 
 14 15  2  0  0  0  0 
 15 16  1  0  0  0  0 
 16 17  2  0  0  0  0 
 17 18  1  0  0  0  0 
 18 19  2  0  0  0  0 
 19 14  1  0  0  0  0 
 13 20  1  0  0  0  0 
  3 21  1  0  0  0  0 
 21 22  2  0  0  0  0 
 21 23  1  0  0  0  0 
  2 24  1  0  0  0  0 
M  END
> <ID>
CHEBI:94334

> <NAME>
6-[(2-amino-1-oxo-2-phenylethyl)amino]-3,3-dimethyl-7-oxo-4-thia-1-azabicyclo[3.2.0]heptane-2-carboxylic acid

> <STAR>
2

> <FORMULA>
C16H19N3O4S

> <MASS>
349.406

> <MONOISOTOPIC_MASS>
349.10963

> <CHARGE>
0

> <SMILES>
CC1(C(N2C(S1)C(C2=O)NC(=O)C(C3=CC=CC=C3)N)C(=O)O)C

> <INCHI>
InChI=1S/C16H19N3O4S/c1-16(2)11(15(22)23)19-13(21)10(14(19)24-16)18-12(20)9(17)8-6-4-3-5-7-8/h3-7,9-11,14H,17H2,1-2H3,(H,18,20)(H,22,23)

> <INCHIKEY>
AVKUERGKIZMTKX-UHFFFAOYSA-N

> <LINCS_ACCESSION>
LSM-4982

$$$$
null
  CDK     0224162159
null
 32 34  0  0  0  0  0  0  0  0999 V2000
   -0.5662   -4.8202    0.0000 C   0  0  0  0  0  0  0  0  0  0  0  0
    0.1483   -5.2327    0.0000 C   0  0  0  0  0  0  0  0  0  0  0  0
    0.8628   -4.8202    0.0000 O   0  0  0  0  0  0  0  0  0  0  0  0
    1.5772   -5.2327    0.0000 C   0  0  0  0  0  0  0  0  0  0  0  0
    1.5772   -6.0577    0.0000 O   0  0  0  0  0  0  0  0  0  0  0  0
    2.2917   -4.8202    0.0000 O   0  0  0  0  0  0  0  0  0  0  0  0
    3.0062   -5.2327    0.0000 C   0  0  0  0  0  0  0  0  0  0  0  0
    3.0062   -6.0577    0.0000 C   0  0  0  0  0  0  0  0  0  0  0  0
    3.7206   -4.8202    0.0000 O   0  0  0  0  0  0  0  0  0  0  0  0
    4.4351   -5.2327    0.0000 C   0  0  0  0  0  0  0  0  0  0  0  0
    4.4351   -6.0577    0.0000 O   0  0  0  0  0  0  0  0  0  0  0  0
    5.1496   -4.8202    0.0000 C   0  0  1  0  0  0  0  0  0  0  0  0
    5.2358   -3.9997    0.0000 C   0  0  0  0  0  0  0  0  0  0  0  0
    6.0428   -3.8282    0.0000 S   0  0  0  0  0  0  0  0  0  0  0  0
    6.4553   -4.5427    0.0000 C   0  0  2  0  0  0  0  0  0  0  0  0
    5.9033   -5.1558    0.0000 N   0  0  0  0  0  0  0  0  0  0  0  0
    6.5163   -5.7078    0.0000 C   0  0  0  0  0  0  0  0  0  0  0  0
    6.5595   -6.5317    0.0000 O   0  0  0  0  0  0  0  0  0  0  0  0
    7.0684   -5.0947    0.0000 C   0  0  1  0  0  0  0  0  0  0  0  0
    7.8922   -5.0515    0.0000 N   0  0  0  0  0  0  0  0  0  0  0  0
    8.3416   -5.7434    0.0000 C   0  0  0  0  0  0  0  0  0  0  0  0
    7.9670   -6.4785    0.0000 O   0  0  0  0  0  0  0  0  0  0  0  0
    9.1654   -5.7003    0.0000 C   0  0  1  0  0  0  0  0  0  0  0  0
    9.6148   -6.3922    0.0000 C   0  0  0  0  0  0  0  0  0  0  0  0
   10.4386   -6.3490    0.0000 C   0  0  0  0  0  0  0  0  0  0  0  0
   10.8880   -7.0409    0.0000 C   0  0  0  0  0  0  0  0  0  0  0  0
   10.5134   -7.7760    0.0000 C   0  0  0  0  0  0  0  0  0  0  0  0
    9.6896   -7.8191    0.0000 C   0  0  0  0  0  0  0  0  0  0  0  0
    9.2402   -7.1272    0.0000 C   0  0  0  0  0  0  0  0  0  0  0  0
    9.5400   -4.9652    0.0000 N   0  0  0  0  0  0  0  0  0  0  0  0
    4.4307   -3.8198    0.0000 C   0  0  0  0  0  0  0  0  0  0  0  0
    4.9727   -3.2178    0.0000 C   0  0  0  0  0  0  0  0  0  0  0  0
  1  2  1  0  0  0  0 
  2  3  1  0  0  0  0 
  3  4  1  0  0  0  0 
  4  5  2  0  0  0  0 
  4  6  1  0  0  0  0 
  6  7  1  0  0  0  0 
  7  8  1  0  0  0  0 
  7  9  1  0  0  0  0 
  9 10  1  0  0  0  0 
 10 11  2  0  0  0  0 
 12 10  1  1  0  0  0 
 12 13  1  0  0  0  0 
 13 14  1  0  0  0  0 
 15 14  1  1  0  0  0 
 15 16  1  0  0  0  0 
 16 12  1  0  0  0  0 
 16 17  1  0  0  0  0 
 17 18  2  0  0  0  0 
 17 19  1  0  0  0  0 
 19 15  1  0  0  0  0 
 19 20  1  6  0  0  0 
 20 21  1  0  0  0  0 
 21 22  2  0  0  0  0 
 21 23  1  0  0  0  0 
 23 24  1  0  0  0  0 
 24 25  2  0  0  0  0 
 25 26  1  0  0  0  0 
 26 27  2  0  0  0  0 
 27 28  1  0  0  0  0 
 28 29  2  0  0  0  0 
 29 24  1  0  0  0  0 
 23 30  1  6  0  0  0 
 13 31  1  0  0  0  0 
 13 32  1  0  0  0  0 
M  END
> <ID>
CHEBI:94363

> <NAME>
1-ethoxycarbonyloxyethyl (2S,5S,6R)-6-[[(2R)-2-amino-2-phenylacetyl]amino]-3,3-dimethyl-7-oxo-4-thia-1-azabicyclo[3.2.0]heptane-2-carboxylate

> <STAR>
2

> <FORMULA>
C21H27N3O7S

> <MASS>
465.522

> <MONOISOTOPIC_MASS>
465.15697

> <CHARGE>
0

> <SMILES>
CCOC(=O)OC(C)OC(=O)[C@H]1C(S[C@@H]2N1C(=O)[C@H]2NC(=O)[C@@H](C3=CC=CC=C3)N)(C)C

> <INCHI>
InChI=1S/C21H27N3O7S/c1-5-29-20(28)31-11(2)30-19(27)15-21(3,4)32-18-14(17(26)24(15)18)23-16(25)13(22)12-9-7-6-8-10-12/h6-11,13-15,18H,5,22H2,1-4H3,(H,23,25)/t11?,13-,14-,15+,18+/m1/s1

> <INCHIKEY>
PFOLLRNADZZWEX-NTCDUUMSSA-N

> <LINCS_ACCESSION>
LSM-5027

$$$$
null
  CDK     0224162200
null
 30 33  0  0  0  0  0  0  0  0999 V2000
   -1.2471   -3.0749    0.0000 C   0  0  0  0  0  0  0  0  0  0  0  0
   -1.9822   -2.7003    0.0000 C   0  0  0  0  0  0  0  0  0  0  0  0
   -2.1113   -1.8855    0.0000 C   0  0  0  0  0  0  0  0  0  0  0  0
   -2.9261   -1.7564    0.0000 C   0  0  0  0  0  0  0  0  0  0  0  0
   -3.3007   -2.4915    0.0000 N   0  0  0  0  0  0  0  0  0  0  0  0
   -2.7173   -3.0749    0.0000 O   0  0  0  0  0  0  0  0  0  0  0  0
   -3.3007   -1.0213    0.0000 C   0  0  0  0  0  0  0  0  0  0  0  0
   -4.1245   -0.9782    0.0000 C   0  0  0  0  0  0  0  0  0  0  0  0
   -4.4991   -0.2431    0.0000 C   0  0  0  0  0  0  0  0  0  0  0  0
   -4.0497    0.4488    0.0000 C   0  0  0  0  0  0  0  0  0  0  0  0
   -3.2259    0.4056    0.0000 C   0  0  0  0  0  0  0  0  0  0  0  0
   -2.8513   -0.3294    0.0000 C   0  0  0  0  0  0  0  0  0  0  0  0
   -2.0275   -0.3726    0.0000 Cl  0  0  0  0  0  0  0  0  0  0  0  0
   -4.5739   -1.6701    0.0000 F   0  0  0  0  0  0  0  0  0  0  0  0
   -1.5279   -1.3021    0.0000 C   0  0  0  0  0  0  0  0  0  0  0  0
   -1.7414   -0.5052    0.0000 O   0  0  0  0  0  0  0  0  0  0  0  0
   -0.7310   -1.5156    0.0000 N   0  0  0  0  0  0  0  0  0  0  0  0
   -0.1477   -0.9323    0.0000 C   0  0  1  0  0  0  0  0  0  0  0  0
    0.6773   -0.9323    0.0000 C   0  0  1  0  0  0  0  0  0  0  0  0
    0.6773   -0.1073    0.0000 N   0  0  0  0  0  0  0  0  0  0  0  0
   -0.1477   -0.1073    0.0000 C   0  0  0  0  0  0  0  0  0  0  0  0
   -0.7310    0.4761    0.0000 O   0  0  0  0  0  0  0  0  0  0  0  0
    1.4620    0.1477    0.0000 C   0  0  0  0  0  0  0  0  0  0  0  0
    1.9469   -0.5198    0.0000 C   0  0  0  0  0  0  0  0  0  0  0  0
    1.4620   -1.1872    0.0000 S   0  0  0  0  0  0  0  0  0  0  0  0
    2.6656   -0.9248    0.0000 C   0  0  0  0  0  0  0  0  0  0  0  0
    2.6656   -0.1148    0.0000 C   0  0  0  0  0  0  0  0  0  0  0  0
    1.7169    0.9323    0.0000 C   0  0  0  0  0  0  0  0  0  0  0  0
    1.1649    1.5454    0.0000 O   0  0  0  0  0  0  0  0  0  0  0  0
    2.5239    1.1038    0.0000 O   0  0  0  0  0  0  0  0  0  0  0  0
  1  2  1  0  0  0  0 
  2  3  2  0  0  0  0 
  3  4  1  0  0  0  0 
  4  5  2  0  0  0  0 
  5  6  1  0  0  0  0 
  6  2  1  0  0  0  0 
  4  7  1  0  0  0  0 
  7  8  2  0  0  0  0 
  8  9  1  0  0  0  0 
  9 10  2  0  0  0  0 
 10 11  1  0  0  0  0 
 11 12  2  0  0  0  0 
 12  7  1  0  0  0  0 
 12 13  1  0  0  0  0 
  8 14  1  0  0  0  0 
  3 15  1  0  0  0  0 
 15 16  2  0  0  0  0 
 15 17  1  0  0  0  0 
 18 17  1  6  0  0  0 
 18 19  1  0  0  0  0 
 19 20  1  0  0  0  0 
 20 21  1  0  0  0  0 
 21 18  1  0  0  0  0 
 21 22  2  0  0  0  0 
 20 23  1  0  0  0  0 
 23 24  1  0  0  0  0 
 24 25  1  0  0  0  0 
 19 25  1  1  0  0  0 
 24 26  1  0  0  0  0 
 24 27  1  0  0  0  0 
 23 28  1  0  0  0  0 
 28 29  2  0  0  0  0 
 28 30  1  0  0  0  0 
M  END
> <ID>
CHEBI:94407

> <NAME>
(5S,6R)-6-[[3-(2-chloro-6-fluorophenyl)-5-methyl-1,2-oxazole-4-carbonyl]amino]-3,3-dimethyl-7-oxo-4-thia-1-azabicyclo[3.2.0]heptane-2-carboxylic acid

> <STAR>
2

> <FORMULA>
C19H17ClFN3O5S

> <MASS>
453.874

> <MONOISOTOPIC_MASS>
453.05615

> <CHARGE>
0

> <SMILES>
CC1=C(C(=NO1)C2=C(C=CC=C2Cl)F)C(=O)N[C@H]3[C@H]4N(C3=O)C(C(S4)(C)C)C(=O)O

> <INCHI>
InChI=1S/C19H17ClFN3O5S/c1-7-10(12(23-29-7)11-8(20)5-4-6-9(11)21)15(25)22-13-16(26)24-14(18(27)28)19(2,3)30-17(13)24/h4-6,13-14,17H,1-3H3,(H,22,25)(H,27,28)/t13-,14?,17+/m1/s1

> <INCHIKEY>
UIOFUWFRIANQPC-HFIQTRLSSA-N

> <LINCS_ACCESSION>
LSM-5094

$$$$
null
  CDK     0224162200
null
 30 32  0  0  0  0  0  0  0  0999 V2000
    4.8503    0.9760    0.0000 C   0  0  0  0  0  0  0  0  0  0  0  0
    4.1358    0.5635    0.0000 C   0  0  0  0  0  0  0  0  0  0  0  0
    4.1358   -0.2615    0.0000 O   0  0  0  0  0  0  0  0  0  0  0  0
    3.4214    0.9760    0.0000 O   0  0  0  0  0  0  0  0  0  0  0  0
    2.7069    0.5635    0.0000 C   0  0  0  0  0  0  0  0  0  0  0  0
    1.9924    0.9760    0.0000 C   0  0  0  0  0  0  0  0  0  0  0  0
    1.2780    0.5635    0.0000 C   0  0  0  0  0  0  0  0  0  0  0  0
    0.5635    0.9760    0.0000 N   0  0  0  0  0  0  0  0  0  0  0  0
    0.5635    1.8010    0.0000 C   0  0  0  0  0  0  0  0  0  0  0  0
   -0.2615    1.8010    0.0000 C   0  0  0  0  0  0  0  0  0  0  0  0
   -0.2615    0.9760    0.0000 C   0  0  0  0  0  0  0  0  0  0  0  0
   -0.8449    0.3926    0.0000 O   0  0  0  0  0  0  0  0  0  0  0  0
   -0.8449    2.3843    0.0000 N   0  0  0  0  0  0  0  0  0  0  0  0
   -1.6418    2.1708    0.0000 C   0  0  0  0  0  0  0  0  0  0  0  0
   -2.2251    2.7542    0.0000 O   0  0  0  0  0  0  0  0  0  0  0  0
   -1.8553    1.3739    0.0000 C   0  0  0  0  0  0  0  0  0  0  0  0
   -1.2719    0.7906    0.0000 N   0  0  0  0  0  0  0  0  0  0  0  0
   -1.4855   -0.0063    0.0000 O   0  0  0  0  0  0  0  0  0  0  0  0
   -0.9021   -0.5897    0.0000 C   0  0  0  0  0  0  0  0  0  0  0  0
   -2.6522    1.1604    0.0000 C   0  0  0  0  0  0  0  0  0  0  0  0
   -2.9478    0.3902    0.0000 C   0  0  0  0  0  0  0  0  0  0  0  0
   -3.7717    0.4334    0.0000 S   0  0  0  0  0  0  0  0  0  0  0  0
   -3.9852    1.2303    0.0000 C   0  0  0  0  0  0  0  0  0  0  0  0
   -3.2933    1.6796    0.0000 N   0  0  0  0  0  0  0  0  0  0  0  0
   -4.7554    1.5259    0.0000 N   0  0  0  0  0  0  0  0  0  0  0  0
    1.2780    2.2135    0.0000 S   0  0  0  0  0  0  0  0  0  0  0  0
    1.9924    1.8010    0.0000 C   0  0  0  0  0  0  0  0  0  0  0  0
    1.2780   -0.2615    0.0000 C   0  0  0  0  0  0  0  0  0  0  0  0
    0.5635   -0.6740    0.0000 O   0  0  0  0  0  0  0  0  0  0  0  0
    1.9924   -0.6740    0.0000 O   0  0  0  0  0  0  0  0  0  0  0  0
  1  2  1  0  0  0  0 
  2  3  2  0  0  0  0 
  2  4  1  0  0  0  0 
  4  5  1  0  0  0  0 
  5  6  1  0  0  0  0 
  6  7  2  0  0  0  0 
  7  8  1  0  0  0  0 
  8  9  1  0  0  0  0 
  9 10  1  0  0  0  0 
 10 11  1  0  0  0  0 
 11  8  1  0  0  0  0 
 11 12  2  0  0  0  0 
 10 13  1  0  0  0  0 
 13 14  1  0  0  0  0 
 14 15  2  0  0  0  0 
 14 16  1  0  0  0  0 
 16 17  2  0  0  0  0 
 17 18  1  4  0  0  0 
 18 19  1  0  0  0  0 
 16 20  1  0  0  0  0 
 20 21  2  0  0  0  0 
 21 22  1  0  0  0  0 
 22 23  1  0  0  0  0 
 23 24  2  0  0  0  0 
 24 20  1  0  0  0  0 
 23 25  1  0  0  0  0 
  9 26  1  0  0  0  0 
 26 27  1  0  0  0  0 
 27  6  1  0  0  0  0 
  7 28  1  0  0  0  0 
 28 29  2  0  0  0  0 
 28 30  1  0  0  0  0 
M  END
> <ID>
CHEBI:94427

> <NAME>
3-(acetyloxymethyl)-7-[[2-(2-amino-4-thiazolyl)-2-methoxyimino-1-oxoethyl]amino]-8-oxo-5-thia-1-azabicyclo[4.2.0]oct-2-ene-2-carboxylic acid

> <STAR>
2

> <FORMULA>
C16H17N5O7S2

> <MASS>
455.468

> <MONOISOTOPIC_MASS>
455.05694

> <CHARGE>
0

> <SMILES>
CC(=O)OCC1=C(N2C(C(C2=O)NC(=O)C(=NOC)C3=CSC(=N3)N)SC1)C(=O)O

> <INCHI>
InChI=1S/C16H17N5O7S2/c1-6(22)28-3-7-4-29-14-10(13(24)21(14)11(7)15(25)26)19-12(23)9(20-27-2)8-5-30-16(17)18-8/h5,10,14H,3-4H2,1-2H3,(H2,17,18)(H,19,23)(H,25,26)

> <INCHIKEY>
GPRBEKHLDVQUJE-UHFFFAOYSA-N

> <LINCS_ACCESSION>
LSM-5124

$$$$
null
  CDK     0224162200
null
 25 27  0  0  0  0  0  0  0  0999 V2000
   -0.8256   -0.5974    0.0000 C   0  0  0  0  0  0  0  0  0  0  0  0
   -1.2001    0.1376    0.0000 C   0  0  0  0  0  0  0  0  0  0  0  0
   -1.7193    0.7788    0.0000 C   0  0  1  0  0  0  0  0  0  0  0  0
   -1.2700    1.4707    0.0000 N   0  0  0  0  0  0  0  0  0  0  0  0
   -0.4731    1.2572    0.0000 C   0  0  1  0  0  0  0  0  0  0  0  0
   -0.4299    0.4333    0.0000 S   0  0  0  0  0  0  0  0  0  0  0  0
   -0.2596    2.0540    0.0000 C   0  0  1  0  0  0  0  0  0  0  0  0
   -1.0565    2.2676    0.0000 C   0  0  0  0  0  0  0  0  0  0  0  0
   -1.4690    2.9820    0.0000 O   0  0  0  0  0  0  0  0  0  0  0  0
    0.4549    2.4665    0.0000 N   0  0  0  0  0  0  0  0  0  0  0  0
    0.4549    3.2915    0.0000 C   0  0  0  0  0  0  0  0  0  0  0  0
   -0.2596    3.7040    0.0000 O   0  0  0  0  0  0  0  0  0  0  0  0
    1.1694    3.7040    0.0000 C   0  0  0  0  0  0  0  0  0  0  0  0
    1.1694    4.5290    0.0000 C   0  0  0  0  0  0  0  0  0  0  0  0
    0.5019    5.0140    0.0000 C   0  0  0  0  0  0  0  0  0  0  0  0
    0.7569    5.7986    0.0000 S   0  0  0  0  0  0  0  0  0  0  0  0
    1.5819    5.7986    0.0000 C   0  0  0  0  0  0  0  0  0  0  0  0
    1.8368    5.0140    0.0000 C   0  0  0  0  0  0  0  0  0  0  0  0
    1.8838    3.2915    0.0000 C   0  0  0  0  0  0  0  0  0  0  0  0
    2.5983    3.7040    0.0000 O   0  0  0  0  0  0  0  0  0  0  0  0
    1.8838    2.4665    0.0000 O   0  0  0  0  0  0  0  0  0  0  0  0
   -2.5432    0.7356    0.0000 C   0  0  0  0  0  0  0  0  0  0  0  0
   -2.9177    0.0005    0.0000 O   0  0  0  0  0  0  0  0  0  0  0  0
   -2.9925    1.4275    0.0000 O   0  0  0  0  0  0  0  0  0  0  0  0
   -1.8920   -0.3117    0.0000 C   0  0  0  0  0  0  0  0  0  0  0  0
  1  2  1  0  0  0  0 
  2  3  1  0  0  0  0 
  3  4  1  0  0  0  0 
  4  5  1  0  0  0  0 
  5  6  1  6  0  0  0 
  6  2  1  0  0  0  0 
  5  7  1  0  0  0  0 
  7  8  1  0  0  0  0 
  8  4  1  0  0  0  0 
  8  9  2  0  0  0  0 
  7 10  1  1  0  0  0 
 10 11  1  0  0  0  0 
 11 12  2  0  0  0  0 
 11 13  1  0  0  0  0 
 13 14  1  0  0  0  0 
 14 15  2  0  0  0  0 
 15 16  1  0  0  0  0 
 16 17  1  0  0  0  0 
 17 18  2  0  0  0  0 
 18 14  1  0  0  0  0 
 13 19  1  0  0  0  0 
 19 20  2  0  0  0  0 
 19 21  1  0  0  0  0 
  3 22  1  6  0  0  0 
 22 23  2  0  0  0  0 
 22 24  1  0  0  0  0 
  2 25  1  0  0  0  0 
M  END
> <ID>
CHEBI:94447

> <NAME>
(2S,5S,6R)-6-[[2-carboxy-1-oxo-2-(3-thiophenyl)ethyl]amino]-3,3-dimethyl-7-oxo-4-thia-1-azabicyclo[3.2.0]heptane-2-carboxylic acid

> <STAR>
2

> <FORMULA>
C15H16N2O6S2

> <MASS>
384.430

> <MONOISOTOPIC_MASS>
384.04498

> <CHARGE>
0

> <SMILES>
CC1([C@@H](N2[C@@H](S1)[C@@H](C2=O)NC(=O)C(C3=CSC=C3)C(=O)O)C(=O)O)C

> <INCHI>
InChI=1S/C15H16N2O6S2/c1-15(2)9(14(22)23)17-11(19)8(12(17)25-15)16-10(18)7(13(20)21)6-3-4-24-5-6/h3-5,7-9,12H,1-2H3,(H,16,18)(H,20,21)(H,22,23)/t7?,8-,9+,12+/m1/s1

> <INCHIKEY>
OHKOGUYZJXTSFX-CDLSRNGISA-N

> <LINCS_ACCESSION>
LSM-5160

$$$$
null
  CDK     0224162200
null
 24 26  0  0  0  0  0  0  0  0999 V2000
   -3.5533    2.4560    0.0000 C   0  0  0  0  0  0  0  0  0  0  0  0
   -3.1040    3.1479    0.0000 C   0  0  0  0  0  0  0  0  0  0  0  0
   -2.8083    3.9181    0.0000 C   0  0  0  0  0  0  0  0  0  0  0  0
   -1.9845    3.8749    0.0000 N   0  0  0  0  0  0  0  0  0  0  0  0
   -1.7709    3.0780    0.0000 C   0  0  0  0  0  0  0  0  0  0  0  0
   -2.4628    2.6287    0.0000 S   0  0  0  0  0  0  0  0  0  0  0  0
   -0.9740    3.2915    0.0000 C   0  0  0  0  0  0  0  0  0  0  0  0
   -1.1876    4.0884    0.0000 C   0  0  0  0  0  0  0  0  0  0  0  0
   -0.7751    4.8029    0.0000 O   0  0  0  0  0  0  0  0  0  0  0  0
   -0.2596    2.8790    0.0000 N   0  0  0  0  0  0  0  0  0  0  0  0
    0.4549    3.2915    0.0000 C   0  0  0  0  0  0  0  0  0  0  0  0
    0.4549    4.1165    0.0000 O   0  0  0  0  0  0  0  0  0  0  0  0
    1.1694    2.8790    0.0000 C   0  0  0  0  0  0  0  0  0  0  0  0
    1.8838    3.2915    0.0000 O   0  0  0  0  0  0  0  0  0  0  0  0
    2.5983    2.8790    0.0000 C   0  0  0  0  0  0  0  0  0  0  0  0
    3.3128    3.2915    0.0000 C   0  0  0  0  0  0  0  0  0  0  0  0
    4.0273    2.8790    0.0000 C   0  0  0  0  0  0  0  0  0  0  0  0
    4.0273    2.0540    0.0000 C   0  0  0  0  0  0  0  0  0  0  0  0
    3.3128    1.6415    0.0000 C   0  0  0  0  0  0  0  0  0  0  0  0
    2.5983    2.0540    0.0000 C   0  0  0  0  0  0  0  0  0  0  0  0
   -3.2577    4.6100    0.0000 C   0  0  0  0  0  0  0  0  0  0  0  0
   -4.0815    4.5668    0.0000 O   0  0  0  0  0  0  0  0  0  0  0  0
   -2.8831    5.3451    0.0000 O   0  0  0  0  0  0  0  0  0  0  0  0
   -3.8391    3.5224    0.0000 C   0  0  0  0  0  0  0  0  0  0  0  0
  1  2  1  0  0  0  0 
  2  3  1  0  0  0  0 
  3  4  1  0  0  0  0 
  4  5  1  0  0  0  0 
  5  6  1  0  0  0  0 
  6  2  1  0  0  0  0 
  5  7  1  0  0  0  0 
  7  8  1  0  0  0  0 
  8  4  1  0  0  0  0 
  8  9  2  0  0  0  0 
  7 10  1  0  0  0  0 
 10 11  1  0  0  0  0 
 11 12  2  0  0  0  0 
 11 13  1  0  0  0  0 
 13 14  1  0  0  0  0 
 14 15  1  0  0  0  0 
 15 16  2  0  0  0  0 
 16 17  1  0  0  0  0 
 17 18  2  0  0  0  0 
 18 19  1  0  0  0  0 
 19 20  2  0  0  0  0 
 20 15  1  0  0  0  0 
  3 21  1  0  0  0  0 
 21 22  2  0  0  0  0 
 21 23  1  0  0  0  0 
  2 24  1  0  0  0  0 
M  END
> <ID>
CHEBI:94454

> <NAME>
3,3-dimethyl-7-oxo-6-[(1-oxo-2-phenoxyethyl)amino]-4-thia-1-azabicyclo[3.2.0]heptane-2-carboxylic acid

> <STAR>
2

> <FORMULA>
C16H18N2O5S

> <MASS>
350.391

> <MONOISOTOPIC_MASS>
350.09364

> <CHARGE>
0

> <SMILES>
CC1(C(N2C(S1)C(C2=O)NC(=O)COC3=CC=CC=C3)C(=O)O)C

> <INCHI>
InChI=1S/C16H18N2O5S/c1-16(2)12(15(21)22)18-13(20)11(14(18)24-16)17-10(19)8-23-9-6-4-3-5-7-9/h3-7,11-12,14H,8H2,1-2H3,(H,17,19)(H,21,22)

> <INCHIKEY>
BPLBGHOLXOTWMN-UHFFFAOYSA-N

> <LINCS_ACCESSION>
LSM-5173

$$$$
null
  CDK     0224162200
null
 37 39  0  0  0  0  0  0  0  0999 V2000
   -2.1434   -4.5375    0.0000 C   0  0  0  0  0  0  0  0  0  0  0  0
   -1.4289   -4.9500    0.0000 C   0  0  0  0  0  0  0  0  0  0  0  0
   -1.4289   -5.7750    0.0000 C   0  0  0  0  0  0  0  0  0  0  0  0
   -0.7145   -4.5375    0.0000 O   0  0  0  0  0  0  0  0  0  0  0  0
    0.0000   -4.9500    0.0000 C   0  0  0  0  0  0  0  0  0  0  0  0
    0.0000   -5.7750    0.0000 O   0  0  0  0  0  0  0  0  0  0  0  0
    0.7145   -4.5375    0.0000 O   0  0  0  0  0  0  0  0  0  0  0  0
    1.4289   -4.9500    0.0000 C   0  0  0  0  0  0  0  0  0  0  0  0
    1.4289   -5.7750    0.0000 C   0  0  0  0  0  0  0  0  0  0  0  0
    2.1434   -4.5375    0.0000 O   0  0  0  0  0  0  0  0  0  0  0  0
    2.8579   -4.9500    0.0000 C   0  0  0  0  0  0  0  0  0  0  0  0
    2.8579   -5.7750    0.0000 O   0  0  0  0  0  0  0  0  0  0  0  0
    3.5724   -4.5375    0.0000 C   0  0  0  0  0  0  0  0  0  0  0  0
    3.5724   -3.7125    0.0000 C   0  0  0  0  0  0  0  0  0  0  0  0
    4.2868   -3.3000    0.0000 C   0  0  0  0  0  0  0  0  0  0  0  0
    5.0013   -3.7125    0.0000 S   0  0  0  0  0  0  0  0  0  0  0  0
    5.0013   -4.5375    0.0000 C   0  0  1  0  0  0  0  0  0  0  0  0
    4.2868   -4.9500    0.0000 N   0  0  0  0  0  0  0  0  0  0  0  0
    4.6993   -5.6645    0.0000 C   0  0  0  0  0  0  0  0  0  0  0  0
    4.4858   -6.4614    0.0000 O   0  0  0  0  0  0  0  0  0  0  0  0
    5.4138   -5.2520    0.0000 C   0  0  1  0  0  0  0  0  0  0  0  0
    6.2107   -5.4655    0.0000 N   0  0  0  0  0  0  0  0  0  0  0  0
    6.7940   -4.8821    0.0000 C   0  0  0  0  0  0  0  0  0  0  0  0
    7.5909   -5.0957    0.0000 O   0  0  0  0  0  0  0  0  0  0  0  0
    6.5805   -4.0852    0.0000 C   0  0  0  0  0  0  0  0  0  0  0  0
    5.7836   -3.8717    0.0000 N   0  0  0  0  0  0  0  0  0  0  0  0
    5.5701   -3.0748    0.0000 O   0  0  0  0  0  0  0  0  0  0  0  0
    4.7732   -2.8613    0.0000 C   0  0  0  0  0  0  0  0  0  0  0  0
    7.1639   -3.5019    0.0000 C   0  0  0  0  0  0  0  0  0  0  0  0
    7.0348   -2.6870    0.0000 C   0  0  0  0  0  0  0  0  0  0  0  0
    7.7699   -2.3125    0.0000 S   0  0  0  0  0  0  0  0  0  0  0  0
    8.3533   -2.8959    0.0000 C   0  0  0  0  0  0  0  0  0  0  0  0
    7.9787   -3.6309    0.0000 N   0  0  0  0  0  0  0  0  0  0  0  0
    9.1681   -2.7668    0.0000 N   0  0  0  0  0  0  0  0  0  0  0  0
    2.8579   -3.3000    0.0000 C   0  0  0  0  0  0  0  0  0  0  0  0
    2.1434   -3.7125    0.0000 O   0  0  0  0  0  0  0  0  0  0  0  0
    1.4289   -3.3000    0.0000 C   0  0  0  0  0  0  0  0  0  0  0  0
  1  2  1  0  0  0  0 
  2  3  1  0  0  0  0 
  2  4  1  0  0  0  0 
  4  5  1  0  0  0  0 
  5  6  2  0  0  0  0 
  5  7  1  0  0  0  0 
  7  8  1  0  0  0  0 
  8  9  1  0  0  0  0 
  8 10  1  0  0  0  0 
 10 11  1  0  0  0  0 
 11 12  2  0  0  0  0 
 11 13  1  0  0  0  0 
 13 14  2  0  0  0  0 
 14 15  1  0  0  0  0 
 15 16  1  0  0  0  0 
 17 16  1  6  0  0  0 
 17 18  1  0  0  0  0 
 18 13  1  0  0  0  0 
 18 19  1  0  0  0  0 
 19 20  2  0  0  0  0 
 19 21  1  0  0  0  0 
 21 17  1  0  0  0  0 
 21 22  1  6  0  0  0 
 22 23  1  0  0  0  0 
 23 24  2  0  0  0  0 
 23 25  1  0  0  0  0 
 25 26  2  0  0  0  0 
 26 27  1  4  0  0  0 
 27 28  1  0  0  0  0 
 25 29  1  0  0  0  0 
 29 30  2  0  0  0  0 
 30 31  1  0  0  0  0 
 31 32  1  0  0  0  0 
 32 33  2  0  0  0  0 
 33 29  1  0  0  0  0 
 32 34  1  0  0  0  0 
 14 35  1  0  0  0  0 
 35 36  1  0  0  0  0 
 36 37  1  0  0  0  0 
M  END
> <ID>
CHEBI:94455

> <NAME>
(6R,7R)-7-[[2-(2-amino-4-thiazolyl)-2-methoxyimino-1-oxoethyl]amino]-3-(methoxymethyl)-8-oxo-5-thia-1-azabicyclo[4.2.0]oct-2-ene-2-carboxylic acid 1-[oxo(propan-2-yloxy)methoxy]ethyl ester

> <STAR>
2

> <FORMULA>
C21H27N5O9S2

> <MASS>
557.600

> <MONOISOTOPIC_MASS>
557.12502

> <CHARGE>
0

> <SMILES>
CC(C)OC(=O)OC(C)OC(=O)C1=C(CS[C@H]2N1C(=O)[C@H]2NC(=O)C(=NOC)C3=CSC(=N3)N)COC

> <INCHI>
InChI=1S/C21H27N5O9S2/c1-9(2)33-21(30)35-10(3)34-19(29)15-11(6-31-4)7-36-18-14(17(28)26(15)18)24-16(27)13(25-32-5)12-8-37-20(22)23-12/h8-10,14,18H,6-7H2,1-5H3,(H2,22,23)(H,24,27)/t10?,14-,18-/m1/s1

> <INCHIKEY>
LTINZAODLRIQIX-OBEQYXGQSA-N

> <LINCS_ACCESSION>
LSM-5175

$$$$
null
  CDK     0224162200
null
 26 28  0  0  0  0  0  0  0  0999 V2000
    3.4214    0.9760    0.0000 C   0  0  0  0  0  0  0  0  0  0  0  0
    2.7069    0.5635    0.0000 C   0  0  0  0  0  0  0  0  0  0  0  0
    1.9924    0.9760    0.0000 C   0  0  0  0  0  0  0  0  0  0  0  0
    1.2780    0.5635    0.0000 C   0  0  0  0  0  0  0  0  0  0  0  0
    0.5635    0.9760    0.0000 N   0  0  0  0  0  0  0  0  0  0  0  0
    0.5635    1.8010    0.0000 C   0  0  1  0  0  0  0  0  0  0  0  0
   -0.2615    1.8010    0.0000 C   0  0  1  0  0  0  0  0  0  0  0  0
   -0.2615    0.9760    0.0000 C   0  0  0  0  0  0  0  0  0  0  0  0
   -0.8449    0.3926    0.0000 O   0  0  0  0  0  0  0  0  0  0  0  0
   -0.8449    2.3843    0.0000 N   0  0  0  0  0  0  0  0  0  0  0  0
   -0.6314    3.1812    0.0000 C   0  0  0  0  0  0  0  0  0  0  0  0
    0.1655    3.3948    0.0000 O   0  0  0  0  0  0  0  0  0  0  0  0
   -1.2147    3.7646    0.0000 C   0  0  0  0  0  0  0  0  0  0  0  0
   -2.0116    3.5511    0.0000 N   0  0  0  0  0  0  0  0  0  0  0  0
   -2.5950    4.1344    0.0000 O   0  0  0  0  0  0  0  0  0  0  0  0
   -1.0012    4.5615    0.0000 C   0  0  0  0  0  0  0  0  0  0  0  0
   -1.5204    5.2026    0.0000 C   0  0  0  0  0  0  0  0  0  0  0  0
   -1.0711    5.8945    0.0000 S   0  0  0  0  0  0  0  0  0  0  0  0
   -0.2742    5.6810    0.0000 C   0  0  0  0  0  0  0  0  0  0  0  0
   -0.2310    4.8571    0.0000 N   0  0  0  0  0  0  0  0  0  0  0  0
    0.3670    6.2002    0.0000 N   0  0  0  0  0  0  0  0  0  0  0  0
    1.2780    2.2135    0.0000 S   0  0  0  0  0  0  0  0  0  0  0  0
    1.9924    1.8010    0.0000 C   0  0  0  0  0  0  0  0  0  0  0  0
    1.2780   -0.2615    0.0000 C   0  0  0  0  0  0  0  0  0  0  0  0
    0.5635   -0.6740    0.0000 O   0  0  0  0  0  0  0  0  0  0  0  0
    1.9924   -0.6740    0.0000 O   0  0  0  0  0  0  0  0  0  0  0  0
  1  2  2  0  0  0  0 
  2  3  1  0  0  0  0 
  3  4  2  0  0  0  0 
  4  5  1  0  0  0  0 
  5  6  1  0  0  0  0 
  6  7  1  0  0  0  0 
  7  8  1  0  0  0  0 
  8  5  1  0  0  0  0 
  8  9  2  0  0  0  0 
  7 10  1  1  0  0  0 
 10 11  1  0  0  0  0 
 11 12  2  0  0  0  0 
 11 13  1  0  0  0  0 
 13 14  2  0  0  0  0 
 14 15  1  4  0  0  0 
 13 16  1  0  0  0  0 
 16 17  2  0  0  0  0 
 17 18  1  0  0  0  0 
 18 19  1  0  0  0  0 
 19 20  2  0  0  0  0 
 20 16  1  0  0  0  0 
 19 21  1  0  0  0  0 
  6 22  1  1  0  0  0 
 22 23  1  0  0  0  0 
 23  3  1  0  0  0  0 
  4 24  1  0  0  0  0 
 24 25  2  0  0  0  0 
 24 26  1  0  0  0  0 
M  END
> <ID>
CHEBI:94470

> <NAME>
(6R,7R)-7-[[2-(2-amino-4-thiazolyl)-2-hydroxyimino-1-oxoethyl]amino]-3-ethenyl-8-oxo-5-thia-1-azabicyclo[4.2.0]oct-2-ene-2-carboxylic acid

> <STAR>
2

> <FORMULA>
C14H13N5O5S2

> <MASS>
395.416

> <MONOISOTOPIC_MASS>
395.03581

> <CHARGE>
0

> <SMILES>
C=CC1=C(N2[C@@H]([C@@H](C2=O)NC(=O)C(=NO)C3=CSC(=N3)N)SC1)C(=O)O

> <INCHI>
InChI=1S/C14H13N5O5S2/c1-2-5-3-25-12-8(11(21)19(12)9(5)13(22)23)17-10(20)7(18-24)6-4-26-14(15)16-6/h2,4,8,12,24H,1,3H2,(H2,15,16)(H,17,20)(H,22,23)/t8-,12-/m1/s1

> <INCHIKEY>
RTXOFQZKPXMALH-PRHODGIISA-N

> <LINCS_ACCESSION>
LSM-5216

$$$$
null
  CDK     0224162200
null
 35 38  0  0  0  0  0  0  0  0999 V2000
    3.1194    1.8010    0.0000 C   0  0  0  0  0  0  0  0  0  0  0  0
    3.1194    0.9760    0.0000 C   0  0  0  0  0  0  0  0  0  0  0  0
    2.4049    0.5635    0.0000 C   0  0  0  0  0  0  0  0  0  0  0  0
    1.6905    0.9760    0.0000 N   0  0  0  0  0  0  0  0  0  0  0  0
    1.6905    1.8010    0.0000 C   0  0  2  0  0  0  0  0  0  0  0  0
    2.4049    2.2135    0.0000 S   0  0  0  0  0  0  0  0  0  0  0  0
    0.8655    1.8010    0.0000 C   0  0  2  0  0  0  0  0  0  0  0  0
    0.8655    0.9760    0.0000 C   0  0  0  0  0  0  0  0  0  0  0  0
    0.2821    0.3926    0.0000 O   0  0  0  0  0  0  0  0  0  0  0  0
    0.2821    2.3843    0.0000 N   0  0  0  0  0  0  0  0  0  0  0  0
   -0.5148    2.1708    0.0000 C   0  0  0  0  0  0  0  0  0  0  0  0
   -0.7283    1.3739    0.0000 O   0  0  0  0  0  0  0  0  0  0  0  0
   -1.0982    2.7542    0.0000 C   0  0  0  0  0  0  0  0  0  0  0  0
   -1.8950    2.5407    0.0000 C   0  0  0  0  0  0  0  0  0  0  0  0
   -2.1086    1.7438    0.0000 C   0  0  0  0  0  0  0  0  0  0  0  0
   -2.9055    1.5302    0.0000 C   0  0  0  0  0  0  0  0  0  0  0  0
   -3.4888    2.1136    0.0000 C   0  0  0  0  0  0  0  0  0  0  0  0
   -3.2753    2.9105    0.0000 C   0  0  0  0  0  0  0  0  0  0  0  0
   -2.4784    3.1240    0.0000 C   0  0  0  0  0  0  0  0  0  0  0  0
   -2.2649    3.9209    0.0000 C   0  0  0  0  0  0  0  0  0  0  0  0
   -1.4680    4.1344    0.0000 N   0  0  0  0  0  0  0  0  0  0  0  0
    2.4049   -0.2615    0.0000 C   0  0  0  0  0  0  0  0  0  0  0  0
    1.6905   -0.6740    0.0000 O   0  0  0  0  0  0  0  0  0  0  0  0
    3.1194   -0.6740    0.0000 O   0  0  0  0  0  0  0  0  0  0  0  0
    3.8339    0.5635    0.0000 C   0  0  0  0  0  0  0  0  0  0  0  0
    3.8339   -0.2615    0.0000 S   0  0  0  0  0  0  0  0  0  0  0  0
    4.5483   -0.6740    0.0000 C   0  0  0  0  0  0  0  0  0  0  0  0
    5.3020   -0.3385    0.0000 N   0  0  0  0  0  0  0  0  0  0  0  0
    5.8540   -0.9516    0.0000 N   0  0  0  0  0  0  0  0  0  0  0  0
    5.4415   -1.6660    0.0000 N   0  0  0  0  0  0  0  0  0  0  0  0
    4.6346   -1.4945    0.0000 N   0  0  0  0  0  0  0  0  0  0  0  0
    4.0215   -2.0465    0.0000 C   0  0  0  0  0  0  0  0  0  0  0  0
    4.1930   -2.8535    0.0000 C   0  0  0  0  0  0  0  0  0  0  0  0
    4.9776   -3.1084    0.0000 O   0  0  0  0  0  0  0  0  0  0  0  0
    3.5799   -3.4055    0.0000 O   0  0  0  0  0  0  0  0  0  0  0  0
  1  2  1  0  0  0  0 
  2  3  2  0  0  0  0 
  3  4  1  0  0  0  0 
  4  5  1  0  0  0  0 
  5  6  1  1  0  0  0 
  6  1  1  0  0  0  0 
  5  7  1  0  0  0  0 
  7  8  1  0  0  0  0 
  8  4  1  0  0  0  0 
  8  9  2  0  0  0  0 
  7 10  1  6  0  0  0 
 10 11  1  0  0  0  0 
 11 12  2  0  0  0  0 
 11 13  1  0  0  0  0 
 13 14  1  0  0  0  0 
 14 15  2  0  0  0  0 
 15 16  1  0  0  0  0 
 16 17  2  0  0  0  0 
 17 18  1  0  0  0  0 
 18 19  2  0  0  0  0 
 19 14  1  0  0  0  0 
 19 20  1  0  0  0  0 
 20 21  1  0  0  0  0 
  3 22  1  0  0  0  0 
 22 23  2  0  0  0  0 
 22 24  1  0  0  0  0 
  2 25  1  0  0  0  0 
 25 26  1  0  0  0  0 
 26 27  1  0  0  0  0 
 27 28  2  0  0  0  0 
 28 29  1  0  0  0  0 
 29 30  2  0  0  0  0 
 30 31  1  0  0  0  0 
 31 27  1  0  0  0  0 
 31 32  1  0  0  0  0 
 32 33  1  0  0  0  0 
 33 34  2  0  0  0  0 
 33 35  1  0  0  0  0 
M  END
> <ID>
CHEBI:94485

> <NAME>
(6R,7S)-7-[[2-[2-(aminomethyl)phenyl]-1-oxoethyl]amino]-3-[[[1-(carboxymethyl)-5-tetrazolyl]thio]methyl]-8-oxo-5-thia-1-azabicyclo[4.2.0]oct-2-ene-2-carboxylic acid

> <STAR>
2

> <FORMULA>
C20H21N7O6S2

> <MASS>
519.557

> <MONOISOTOPIC_MASS>
519.09947

> <CHARGE>
0

> <SMILES>
C1C(=C(N2[C@H](S1)[C@H](C2=O)NC(=O)CC3=CC=CC=C3CN)C(=O)O)CSC4=NN=NN4CC(=O)O

> <INCHI>
InChI=1S/C20H21N7O6S2/c21-6-11-4-2-1-3-10(11)5-13(28)22-15-17(31)27-16(19(32)33)12(8-34-18(15)27)9-35-20-23-24-25-26(20)7-14(29)30/h1-4,15,18H,5-9,21H2,(H,22,28)(H,29,30)(H,32,33)/t15-,18+/m0/s1

> <INCHIKEY>
SLAYUXIURFNXPG-MAUKXSAKSA-N

> <LINCS_ACCESSION>
LSM-5241

$$$$
null
  CDK     0224162201
null
 34 37  0  0  0  0  0  0  0  0999 V2000
    3.3389   -2.9750    0.0000 C   0  0  0  0  0  0  0  0  0  0  0  0
    3.1674   -2.1680    0.0000 N   0  0  0  0  0  0  0  0  0  0  0  0
    2.3828   -1.9131    0.0000 C   0  0  0  0  0  0  0  0  0  0  0  0
    3.7805   -1.6160    0.0000 C   0  0  0  0  0  0  0  0  0  0  0  0
    3.6090   -0.8090    0.0000 C   0  0  0  0  0  0  0  0  0  0  0  0
    4.2221   -0.2570    0.0000 N   0  0  0  0  0  0  0  0  0  0  0  0
    4.1358    0.5635    0.0000 C   0  0  0  0  0  0  0  0  0  0  0  0
    4.8895    0.8990    0.0000 N   0  0  0  0  0  0  0  0  0  0  0  0
    5.4415    0.2859    0.0000 N   0  0  0  0  0  0  0  0  0  0  0  0
    5.0290   -0.4285    0.0000 N   0  0  0  0  0  0  0  0  0  0  0  0
    3.4214    0.9760    0.0000 S   0  0  0  0  0  0  0  0  0  0  0  0
    2.7069    0.5635    0.0000 C   0  0  0  0  0  0  0  0  0  0  0  0
    1.9924    0.9760    0.0000 C   0  0  0  0  0  0  0  0  0  0  0  0
    1.2780    0.5635    0.0000 C   0  0  0  0  0  0  0  0  0  0  0  0
    0.5635    0.9760    0.0000 N   0  0  0  0  0  0  0  0  0  0  0  0
    0.5635    1.8010    0.0000 C   0  0  1  0  0  0  0  0  0  0  0  0
   -0.2615    1.8010    0.0000 C   0  0  2  0  0  0  0  0  0  0  0  0
   -0.2615    0.9760    0.0000 C   0  0  0  0  0  0  0  0  0  0  0  0
   -0.8449    0.3926    0.0000 O   0  0  0  0  0  0  0  0  0  0  0  0
   -0.8449    2.3843    0.0000 N   0  0  0  0  0  0  0  0  0  0  0  0
   -1.6418    2.1708    0.0000 C   0  0  0  0  0  0  0  0  0  0  0  0
   -1.8553    1.3739    0.0000 O   0  0  0  0  0  0  0  0  0  0  0  0
   -2.2251    2.7542    0.0000 C   0  0  0  0  0  0  0  0  0  0  0  0
   -3.0220    2.5407    0.0000 C   0  0  0  0  0  0  0  0  0  0  0  0
   -3.3177    1.7705    0.0000 C   0  0  0  0  0  0  0  0  0  0  0  0
   -4.1415    1.8136    0.0000 S   0  0  0  0  0  0  0  0  0  0  0  0
   -4.3551    2.6105    0.0000 C   0  0  0  0  0  0  0  0  0  0  0  0
   -3.6632    3.0598    0.0000 N   0  0  0  0  0  0  0  0  0  0  0  0
   -5.1253    2.9062    0.0000 N   0  0  0  0  0  0  0  0  0  0  0  0
    1.2780    2.2135    0.0000 S   0  0  0  0  0  0  0  0  0  0  0  0
    1.9924    1.8010    0.0000 C   0  0  0  0  0  0  0  0  0  0  0  0
    1.2780   -0.2615    0.0000 C   0  0  0  0  0  0  0  0  0  0  0  0
    0.5635   -0.6740    0.0000 O   0  0  0  0  0  0  0  0  0  0  0  0
    1.9924   -0.6740    0.0000 O   0  0  0  0  0  0  0  0  0  0  0  0
  1  2  1  0  0  0  0 
  2  3  1  0  0  0  0 
  2  4  1  0  0  0  0 
  4  5  1  0  0  0  0 
  5  6  1  0  0  0  0 
  6  7  1  0  0  0  0 
  7  8  2  0  0  0  0 
  8  9  1  0  0  0  0 
  9 10  2  0  0  0  0 
 10  6  1  0  0  0  0 
  7 11  1  0  0  0  0 
 11 12  1  0  0  0  0 
 12 13  1  0  0  0  0 
 13 14  2  0  0  0  0 
 14 15  1  0  0  0  0 
 15 16  1  0  0  0  0 
 16 17  1  0  0  0  0 
 17 18  1  0  0  0  0 
 18 15  1  0  0  0  0 
 18 19  2  0  0  0  0 
 17 20  1  6  0  0  0 
 20 21  1  0  0  0  0 
 21 22  2  0  0  0  0 
 21 23  1  0  0  0  0 
 23 24  1  0  0  0  0 
 24 25  2  0  0  0  0 
 25 26  1  0  0  0  0 
 26 27  1  0  0  0  0 
 27 28  2  0  0  0  0 
 28 24  1  0  0  0  0 
 27 29  1  0  0  0  0 
 16 30  1  1  0  0  0 
 30 31  1  0  0  0  0 
 31 13  1  0  0  0  0 
 14 32  1  0  0  0  0 
 32 33  2  0  0  0  0 
 32 34  1  0  0  0  0 
M  END
> <ID>
CHEBI:94541

> <NAME>
(6R,7S)-7-[[2-(2-amino-4-thiazolyl)-1-oxoethyl]amino]-3-[[[1-[2-(dimethylamino)ethyl]-5-tetrazolyl]thio]methyl]-8-oxo-5-thia-1-azabicyclo[4.2.0]oct-2-ene-2-carboxylic acid

> <STAR>
2

> <FORMULA>
C18H23N9O4S3

> <MASS>
525.632

> <MONOISOTOPIC_MASS>
525.10351

> <CHARGE>
0

> <SMILES>
CN(C)CCN1C(=NN=N1)SCC2=C(N3[C@@H]([C@H](C3=O)NC(=O)CC4=CSC(=N4)N)SC2)C(=O)O

> <INCHI>
InChI=1S/C18H23N9O4S3/c1-25(2)3-4-26-18(22-23-24-26)34-7-9-6-32-15-12(14(29)27(15)13(9)16(30)31)21-11(28)5-10-8-33-17(19)20-10/h8,12,15H,3-7H2,1-2H3,(H2,19,20)(H,21,28)(H,30,31)/t12-,15+/m0/s1

> <INCHIKEY>
QYQDKDWGWDOFFU-SWLSCSKDSA-N

> <LINCS_ACCESSION>
LSM-5376

$$$$
null
  CDK     0224162201
null
 29 32  0  0  0  0  0  0  0  0999 V2000
   -6.3311   -1.2866    0.0000 C   0  0  0  0  0  0  0  0  0  0  0  0
   -6.1176   -2.0834    0.0000 C   0  0  0  0  0  0  0  0  0  0  0  0
   -5.3207   -2.2970    0.0000 O   0  0  0  0  0  0  0  0  0  0  0  0
   -5.1072   -3.0939    0.0000 C   0  0  0  0  0  0  0  0  0  0  0  0
   -4.3103   -3.3074    0.0000 C   0  0  0  0  0  0  0  0  0  0  0  0
   -4.0967   -4.1043    0.0000 C   0  0  0  0  0  0  0  0  0  0  0  0
   -3.2998   -4.3178    0.0000 C   0  0  0  0  0  0  0  0  0  0  0  0
   -3.0863   -5.1147    0.0000 C   0  0  0  0  0  0  0  0  0  0  0  0
   -3.6697   -5.6980    0.0000 C   0  0  0  0  0  0  0  0  0  0  0  0
   -4.4666   -5.4845    0.0000 C   0  0  0  0  0  0  0  0  0  0  0  0
   -4.6801   -4.6876    0.0000 C   0  0  0  0  0  0  0  0  0  0  0  0
   -5.4770   -4.4741    0.0000 C   0  0  0  0  0  0  0  0  0  0  0  0
   -5.6905   -3.6772    0.0000 C   0  0  0  0  0  0  0  0  0  0  0  0
   -3.7269   -2.7240    0.0000 C   0  0  0  0  0  0  0  0  0  0  0  0
   -3.9404   -1.9271    0.0000 O   0  0  0  0  0  0  0  0  0  0  0  0
   -2.9300   -2.9375    0.0000 N   0  0  0  0  0  0  0  0  0  0  0  0
   -2.3466   -2.3542    0.0000 C   0  0  1  0  0  0  0  0  0  0  0  0
   -1.5216   -2.3542    0.0000 C   0  0  1  0  0  0  0  0  0  0  0  0
   -1.5216   -1.5292    0.0000 N   0  0  0  0  0  0  0  0  0  0  0  0
   -2.3466   -1.5292    0.0000 C   0  0  0  0  0  0  0  0  0  0  0  0
   -2.9300   -0.9458    0.0000 O   0  0  0  0  0  0  0  0  0  0  0  0
   -0.7370   -1.2742    0.0000 C   0  0  2  0  0  0  0  0  0  0  0  0
   -0.2521   -1.9417    0.0000 C   0  0  0  0  0  0  0  0  0  0  0  0
   -0.7370   -2.6091    0.0000 S   0  0  0  0  0  0  0  0  0  0  0  0
    0.4666   -1.5367    0.0000 C   0  0  0  0  0  0  0  0  0  0  0  0
    0.4666   -2.3467    0.0000 C   0  0  0  0  0  0  0  0  0  0  0  0
   -0.4821   -0.4896    0.0000 C   0  0  0  0  0  0  0  0  0  0  0  0
    0.3249   -0.3181    0.0000 O   0  0  0  0  0  0  0  0  0  0  0  0
   -1.0341    0.1235    0.0000 O   0  0  0  0  0  0  0  0  0  0  0  0
  1  2  1  0  0  0  0 
  2  3  1  0  0  0  0 
  3  4  1  0  0  0  0 
  4  5  2  0  0  0  0 
  5  6  1  0  0  0  0 
  6  7  2  0  0  0  0 
  7  8  1  0  0  0  0 
  8  9  2  0  0  0  0 
  9 10  1  0  0  0  0 
 10 11  2  0  0  0  0 
 11  6  1  0  0  0  0 
 11 12  1  0  0  0  0 
 12 13  2  0  0  0  0 
 13  4  1  0  0  0  0 
  5 14  1  0  0  0  0 
 14 15  2  0  0  0  0 
 14 16  1  0  0  0  0 
 17 16  1  6  0  0  0 
 17 18  1  0  0  0  0 
 18 19  1  0  0  0  0 
 19 20  1  0  0  0  0 
 20 17  1  0  0  0  0 
 20 21  2  0  0  0  0 
 19 22  1  0  0  0  0 
 22 23  1  0  0  0  0 
 23 24  1  0  0  0  0 
 18 24  1  1  0  0  0 
 23 25  1  0  0  0  0 
 23 26  1  0  0  0  0 
 22 27  1  1  0  0  0 
 27 28  2  0  0  0  0 
 27 29  1  0  0  0  0 
M  END
> <ID>
CHEBI:94571

> <NAME>
(2S,5S,6R)-6-[[(2-ethoxy-1-naphthalenyl)-oxomethyl]amino]-3,3-dimethyl-7-oxo-4-thia-1-azabicyclo[3.2.0]heptane-2-carboxylic acid

> <STAR>
2

> <FORMULA>
C21H22N2O5S

> <MASS>
414.477

> <MONOISOTOPIC_MASS>
414.12494

> <CHARGE>
0

> <SMILES>
CCOC1=C(C2=CC=CC=C2C=C1)C(=O)N[C@H]3[C@H]4N(C3=O)[C@H](C(S4)(C)C)C(=O)O

> <INCHI>
InChI=1S/C21H22N2O5S/c1-4-28-13-10-9-11-7-5-6-8-12(11)14(13)17(24)22-15-18(25)23-16(20(26)27)21(2,3)29-19(15)23/h5-10,15-16,19H,4H2,1-3H3,(H,22,24)(H,26,27)/t15-,16+,19+/m1/s1

> <INCHIKEY>
GPXLMGHLHQJAGZ-GJYPPUQNSA-N

> <LINCS_ACCESSION>
LSM-5446

$$$$
null
  CDK     0224162201
null
 29 31  0  0  0  0  0  0  0  0999 V2000
   -4.4023   -2.0855    0.0000 C   0  0  0  0  0  0  0  0  0  0  0  0
   -3.6054   -2.2990    0.0000 O   0  0  0  0  0  0  0  0  0  0  0  0
   -3.0220   -1.7157    0.0000 N   0  0  0  0  0  0  0  0  0  0  0  0
   -2.2251   -1.9292    0.0000 C   0  0  0  0  0  0  0  0  0  0  0  0
   -2.0116   -2.7261    0.0000 C   0  0  0  0  0  0  0  0  0  0  0  0
   -1.2414   -3.0217    0.0000 C   0  0  0  0  0  0  0  0  0  0  0  0
   -1.2846   -3.8456    0.0000 C   0  0  0  0  0  0  0  0  0  0  0  0
   -2.0815   -4.0591    0.0000 C   0  0  0  0  0  0  0  0  0  0  0  0
   -2.5308   -3.3672    0.0000 O   0  0  0  0  0  0  0  0  0  0  0  0
   -1.6418   -1.3458    0.0000 C   0  0  0  0  0  0  0  0  0  0  0  0
   -1.8553   -0.5489    0.0000 O   0  0  0  0  0  0  0  0  0  0  0  0
   -0.8449   -1.5593    0.0000 N   0  0  0  0  0  0  0  0  0  0  0  0
   -0.2615   -0.9760    0.0000 C   0  0  2  0  0  0  0  0  0  0  0  0
    0.5635   -0.9760    0.0000 C   0  0  2  0  0  0  0  0  0  0  0  0
    0.5635   -0.1510    0.0000 N   0  0  0  0  0  0  0  0  0  0  0  0
   -0.2615   -0.1510    0.0000 C   0  0  0  0  0  0  0  0  0  0  0  0
   -0.8449    0.4324    0.0000 O   0  0  0  0  0  0  0  0  0  0  0  0
    1.2780    0.2615    0.0000 C   0  0  0  0  0  0  0  0  0  0  0  0
    1.9924   -0.1510    0.0000 C   0  0  0  0  0  0  0  0  0  0  0  0
    1.9924   -0.9760    0.0000 C   0  0  0  0  0  0  0  0  0  0  0  0
    1.2780   -1.3885    0.0000 S   0  0  0  0  0  0  0  0  0  0  0  0
    2.7069    0.2615    0.0000 C   0  0  0  0  0  0  0  0  0  0  0  0
    2.7069    1.0865    0.0000 O   0  0  0  0  0  0  0  0  0  0  0  0
    3.4214    1.4990    0.0000 C   0  0  0  0  0  0  0  0  0  0  0  0
    3.4214    2.3240    0.0000 O   0  0  0  0  0  0  0  0  0  0  0  0
    4.1358    1.0865    0.0000 N   0  0  0  0  0  0  0  0  0  0  0  0
    1.2780    1.0865    0.0000 C   0  0  0  0  0  0  0  0  0  0  0  0
    1.9924    1.4990    0.0000 O   0  0  0  0  0  0  0  0  0  0  0  0
    0.5635    1.4990    0.0000 O   0  0  0  0  0  0  0  0  0  0  0  0
  1  2  1  0  0  0  0 
  3  2  1  4  0  0  0 
  3  4  2  0  0  0  0 
  4  5  1  0  0  0  0 
  5  6  2  0  0  0  0 
  6  7  1  0  0  0  0 
  7  8  2  0  0  0  0 
  8  9  1  0  0  0  0 
  9  5  1  0  0  0  0 
  4 10  1  0  0  0  0 
 10 11  2  0  0  0  0 
 10 12  1  0  0  0  0 
 13 12  1  1  0  0  0 
 13 14  1  0  0  0  0 
 14 15  1  0  0  0  0 
 15 16  1  0  0  0  0 
 16 13  1  0  0  0  0 
 16 17  2  0  0  0  0 
 15 18  1  0  0  0  0 
 18 19  2  0  0  0  0 
 19 20  1  0  0  0  0 
 20 21  1  0  0  0  0 
 14 21  1  6  0  0  0 
 19 22  1  0  0  0  0 
 22 23  1  0  0  0  0 
 23 24  1  0  0  0  0 
 24 25  2  0  0  0  0 
 24 26  1  0  0  0  0 
 18 27  1  0  0  0  0 
 27 28  2  0  0  0  0 
 27 29  1  0  0  0  0 
M  END
> <ID>
CHEBI:94594

> <NAME>
LSM-5500

> <STAR>
2

> <FORMULA>
C16H16N4O8S

> <MASS>
424.387

> <MONOISOTOPIC_MASS>
424.06888

> <CHARGE>
0

> <SMILES>
CON=C(C1=CC=CO1)C(=O)N[C@@H]2[C@@H]3N(C2=O)C(=C(CS3)COC(=O)N)C(=O)O

> <INCHI>
InChI=1S/C16H16N4O8S/c1-26-19-9(8-3-2-4-27-8)12(21)18-10-13(22)20-11(15(23)24)7(5-28-16(17)25)6-29-14(10)20/h2-4,10,14H,5-6H2,1H3,(H2,17,25)(H,18,21)(H,23,24)/t10-,14+/m0/s1

> <INCHIKEY>
JFPVXVDWJQMJEE-IINYFYTJSA-N

> <LINCS_ACCESSION>
LSM-5500

$$$$
null
  CDK     0224162201
null
 23 25  0  0  0  0  0  0  0  0999 V2000
    2.5600    1.8968    0.0000 C   0  0  0  0  0  0  0  0  0  0  0  0
    1.9469    1.3448    0.0000 C   0  0  0  0  0  0  0  0  0  0  0  0
    1.4620    0.6773    0.0000 C   0  0  1  0  0  0  0  0  0  0  0  0
    0.6773    0.9323    0.0000 N   0  0  0  0  0  0  0  0  0  0  0  0
    0.6773    1.7573    0.0000 C   0  0  1  0  0  0  0  0  0  0  0  0
    1.4620    2.0122    0.0000 S   0  0  0  0  0  0  0  0  0  0  0  0
   -0.1477    1.7573    0.0000 C   0  0  1  0  0  0  0  0  0  0  0  0
   -0.1477    0.9323    0.0000 C   0  0  0  0  0  0  0  0  0  0  0  0
   -0.7310    0.3489    0.0000 O   0  0  0  0  0  0  0  0  0  0  0  0
   -0.7310    2.3406    0.0000 N   0  0  0  0  0  0  0  0  0  0  0  0
   -1.5279    2.1271    0.0000 C   0  0  0  0  0  0  0  0  0  0  0  0
   -1.7414    1.3302    0.0000 O   0  0  0  0  0  0  0  0  0  0  0  0
   -2.1113    2.7105    0.0000 C   0  0  0  0  0  0  0  0  0  0  0  0
   -2.9082    2.4970    0.0000 C   0  0  0  0  0  0  0  0  0  0  0  0
   -3.1217    1.7001    0.0000 C   0  0  0  0  0  0  0  0  0  0  0  0
   -3.9186    1.4865    0.0000 C   0  0  0  0  0  0  0  0  0  0  0  0
   -4.5019    2.0699    0.0000 C   0  0  0  0  0  0  0  0  0  0  0  0
   -4.2884    2.8668    0.0000 C   0  0  0  0  0  0  0  0  0  0  0  0
   -3.4915    3.0803    0.0000 C   0  0  0  0  0  0  0  0  0  0  0  0
    1.7169   -0.1073    0.0000 C   0  0  0  0  0  0  0  0  0  0  0  0
    2.5239   -0.2788    0.0000 O   0  0  0  0  0  0  0  0  0  0  0  0
    1.1649   -0.7204    0.0000 O   0  0  0  0  0  0  0  0  0  0  0  0
    2.5600    0.7927    0.0000 C   0  0  0  0  0  0  0  0  0  0  0  0
  1  2  1  0  0  0  0 
  2  3  1  0  0  0  0 
  3  4  1  0  0  0  0 
  4  5  1  0  0  0  0 
  5  6  1  6  0  0  0 
  6  2  1  0  0  0  0 
  5  7  1  0  0  0  0 
  7  8  1  0  0  0  0 
  8  4  1  0  0  0  0 
  8  9  2  0  0  0  0 
  7 10  1  1  0  0  0 
 10 11  1  0  0  0  0 
 11 12  2  0  0  0  0 
 11 13  1  0  0  0  0 
 13 14  1  0  0  0  0 
 14 15  2  0  0  0  0 
 15 16  1  0  0  0  0 
 16 17  2  0  0  0  0 
 17 18  1  0  0  0  0 
 18 19  2  0  0  0  0 
 19 14  1  0  0  0  0 
  3 20  1  6  0  0  0 
 20 21  2  0  0  0  0 
 20 22  1  0  0  0  0 
  2 23  1  0  0  0  0 
M  END
> <ID>
CHEBI:94637

> <NAME>
(2S,5S,6R)-3,3-dimethyl-7-oxo-6-[(1-oxo-2-phenylethyl)amino]-4-thia-1-azabicyclo[3.2.0]heptane-2-carboxylic acid

> <STAR>
2

> <FORMULA>
C16H18N2O4S

> <MASS>
334.392

> <MONOISOTOPIC_MASS>
334.09873

> <CHARGE>
0

> <SMILES>
CC1([C@@H](N2[C@@H](S1)[C@@H](C2=O)NC(=O)CC3=CC=CC=C3)C(=O)O)C

> <INCHI>
InChI=1S/C16H18N2O4S/c1-16(2)12(15(21)22)18-13(20)11(14(18)23-16)17-10(19)8-9-6-4-3-5-7-9/h3-7,11-12,14H,8H2,1-2H3,(H,17,19)(H,21,22)/t11-,12+,14+/m1/s1

> <INCHIKEY>
JGSARLDLIJGVTE-DYEKYZERSA-N

> <LINCS_ACCESSION>
LSM-5595

$$$$
null
  CDK     0224162201
null
 29 32  0  0  0  0  0  0  0  0999 V2000
    6.2620    0.3722    0.0000 C   0  0  0  0  0  0  0  0  0  0  0  0
    5.4415    0.2859    0.0000 C   0  0  0  0  0  0  0  0  0  0  0  0
    5.0290   -0.4285    0.0000 N   0  0  0  0  0  0  0  0  0  0  0  0
    4.2221   -0.2570    0.0000 N   0  0  0  0  0  0  0  0  0  0  0  0
    4.1358    0.5635    0.0000 C   0  0  0  0  0  0  0  0  0  0  0  0
    4.8895    0.8990    0.0000 S   0  0  0  0  0  0  0  0  0  0  0  0
    3.4214    0.9760    0.0000 S   0  0  0  0  0  0  0  0  0  0  0  0
    2.7069    0.5635    0.0000 C   0  0  0  0  0  0  0  0  0  0  0  0
    1.9924    0.9760    0.0000 C   0  0  0  0  0  0  0  0  0  0  0  0
    1.2780    0.5635    0.0000 C   0  0  0  0  0  0  0  0  0  0  0  0
    0.5635    0.9760    0.0000 N   0  0  0  0  0  0  0  0  0  0  0  0
    0.5635    1.8010    0.0000 C   0  0  1  0  0  0  0  0  0  0  0  0
   -0.2615    1.8010    0.0000 C   0  0  2  0  0  0  0  0  0  0  0  0
   -0.2615    0.9760    0.0000 C   0  0  0  0  0  0  0  0  0  0  0  0
   -0.8449    0.3926    0.0000 O   0  0  0  0  0  0  0  0  0  0  0  0
   -0.8449    2.3843    0.0000 N   0  0  0  0  0  0  0  0  0  0  0  0
   -0.6314    3.1812    0.0000 C   0  0  0  0  0  0  0  0  0  0  0  0
    0.1655    3.3948    0.0000 O   0  0  0  0  0  0  0  0  0  0  0  0
   -1.2147    3.7646    0.0000 C   0  0  0  0  0  0  0  0  0  0  0  0
   -1.0012    4.5615    0.0000 N   0  0  0  0  0  0  0  0  0  0  0  0
   -1.5204    5.2026    0.0000 C   0  0  0  0  0  0  0  0  0  0  0  0
   -1.0711    5.8945    0.0000 N   0  0  0  0  0  0  0  0  0  0  0  0
   -0.2742    5.6810    0.0000 N   0  0  0  0  0  0  0  0  0  0  0  0
   -0.2310    4.8571    0.0000 N   0  0  0  0  0  0  0  0  0  0  0  0
    1.2780    2.2135    0.0000 S   0  0  0  0  0  0  0  0  0  0  0  0
    1.9924    1.8010    0.0000 C   0  0  0  0  0  0  0  0  0  0  0  0
    1.2780   -0.2615    0.0000 C   0  0  0  0  0  0  0  0  0  0  0  0
    0.5635   -0.6740    0.0000 O   0  0  0  0  0  0  0  0  0  0  0  0
    1.9924   -0.6740    0.0000 O   0  0  0  0  0  0  0  0  0  0  0  0
  1  2  1  0  0  0  0 
  2  3  2  0  0  0  0 
  3  4  1  0  0  0  0 
  4  5  2  0  0  0  0 
  5  6  1  0  0  0  0 
  6  2  1  0  0  0  0 
  5  7  1  0  0  0  0 
  7  8  1  0  0  0  0 
  8  9  1  0  0  0  0 
  9 10  2  0  0  0  0 
 10 11  1  0  0  0  0 
 11 12  1  0  0  0  0 
 12 13  1  0  0  0  0 
 13 14  1  0  0  0  0 
 14 11  1  0  0  0  0 
 14 15  2  0  0  0  0 
 13 16  1  6  0  0  0 
 16 17  1  0  0  0  0 
 17 18  2  0  0  0  0 
 17 19  1  0  0  0  0 
 19 20  1  0  0  0  0 
 20 21  1  0  0  0  0 
 21 22  2  0  0  0  0 
 22 23  1  0  0  0  0 
 23 24  2  0  0  0  0 
 24 20  1  0  0  0  0 
 12 25  1  1  0  0  0 
 25 26  1  0  0  0  0 
 26  9  1  0  0  0  0 
 10 27  1  0  0  0  0 
 27 28  2  0  0  0  0 
 27 29  1  0  0  0  0 
M  END
> <ID>
CHEBI:94650

> <NAME>
(6R,7S)-3-[[(5-methyl-1,3,4-thiadiazol-2-yl)thio]methyl]-8-oxo-7-[[1-oxo-2-(1-tetrazolyl)ethyl]amino]-5-thia-1-azabicyclo[4.2.0]oct-2-ene-2-carboxylic acid

> <STAR>
2

> <FORMULA>
C14H14N8O4S3

> <MASS>
454.511

> <MONOISOTOPIC_MASS>
454.03001

> <CHARGE>
0

> <SMILES>
CC1=NN=C(S1)SCC2=C(N3[C@@H]([C@H](C3=O)NC(=O)CN4C=NN=N4)SC2)C(=O)O

> <INCHI>
InChI=1S/C14H14N8O4S3/c1-6-17-18-14(29-6)28-4-7-3-27-12-9(11(24)22(12)10(7)13(25)26)16-8(23)2-21-5-15-19-20-21/h5,9,12H,2-4H2,1H3,(H,16,23)(H,25,26)/t9-,12+/m0/s1

> <INCHIKEY>
MLYYVTUWGNIJIB-JOYOIKCWSA-N

> <LINCS_ACCESSION>
LSM-5632

$$$$
null
  CDK     0224162201
null
 30 32  0  0  0  0  0  0  0  0999 V2000
    3.4214    0.9760    0.0000 C   0  0  0  0  0  0  0  0  0  0  0  0
    2.7069    0.5635    0.0000 C   0  0  0  0  0  0  0  0  0  0  0  0
    1.9924    0.9760    0.0000 C   0  0  0  0  0  0  0  0  0  0  0  0
    1.2780    0.5635    0.0000 C   0  0  0  0  0  0  0  0  0  0  0  0
    0.5635    0.9760    0.0000 N   0  0  0  0  0  0  0  0  0  0  0  0
    0.5635    1.8010    0.0000 C   0  0  1  0  0  0  0  0  0  0  0  0
   -0.2615    1.8010    0.0000 C   0  0  2  0  0  0  0  0  0  0  0  0
   -0.2615    0.9760    0.0000 C   0  0  0  0  0  0  0  0  0  0  0  0
   -0.8449    0.3926    0.0000 O   0  0  0  0  0  0  0  0  0  0  0  0
   -0.8449    2.3843    0.0000 N   0  0  0  0  0  0  0  0  0  0  0  0
   -0.6314    3.1812    0.0000 C   0  0  0  0  0  0  0  0  0  0  0  0
    0.1655    3.3948    0.0000 O   0  0  0  0  0  0  0  0  0  0  0  0
   -1.2147    3.7646    0.0000 C   0  0  0  0  0  0  0  0  0  0  0  0
   -1.0012    4.5615    0.0000 N   0  0  0  0  0  0  0  0  0  0  0  0
   -1.5846    5.1449    0.0000 O   0  0  0  0  0  0  0  0  0  0  0  0
   -2.3814    4.9313    0.0000 C   0  0  0  0  0  0  0  0  0  0  0  0
   -2.9648    5.5147    0.0000 C   0  0  0  0  0  0  0  0  0  0  0  0
   -3.7617    5.3012    0.0000 O   0  0  0  0  0  0  0  0  0  0  0  0
   -2.7513    6.3116    0.0000 O   0  0  0  0  0  0  0  0  0  0  0  0
   -2.0116    3.5511    0.0000 C   0  0  0  0  0  0  0  0  0  0  0  0
   -2.3073    2.7809    0.0000 C   0  0  0  0  0  0  0  0  0  0  0  0
   -3.1311    2.8240    0.0000 S   0  0  0  0  0  0  0  0  0  0  0  0
   -3.3447    3.6209    0.0000 C   0  0  0  0  0  0  0  0  0  0  0  0
   -2.6527    4.0703    0.0000 N   0  0  0  0  0  0  0  0  0  0  0  0
   -4.1149    3.9166    0.0000 N   0  0  0  0  0  0  0  0  0  0  0  0
    1.2780    2.2135    0.0000 S   0  0  0  0  0  0  0  0  0  0  0  0
    1.9924    1.8010    0.0000 C   0  0  0  0  0  0  0  0  0  0  0  0
    1.2780   -0.2615    0.0000 C   0  0  0  0  0  0  0  0  0  0  0  0
    0.5635   -0.6740    0.0000 O   0  0  0  0  0  0  0  0  0  0  0  0
    1.9924   -0.6740    0.0000 O   0  0  0  0  0  0  0  0  0  0  0  0
  1  2  2  0  0  0  0 
  2  3  1  0  0  0  0 
  3  4  2  0  0  0  0 
  4  5  1  0  0  0  0 
  5  6  1  0  0  0  0 
  6  7  1  0  0  0  0 
  7  8  1  0  0  0  0 
  8  5  1  0  0  0  0 
  8  9  2  0  0  0  0 
  7 10  1  6  0  0  0 
 10 11  1  0  0  0  0 
 11 12  2  0  0  0  0 
 11 13  1  0  0  0  0 
 13 14  2  0  0  0  0 
 14 15  1  4  0  0  0 
 15 16  1  0  0  0  0 
 16 17  1  0  0  0  0 
 17 18  2  0  0  0  0 
 17 19  1  0  0  0  0 
 13 20  1  0  0  0  0 
 20 21  2  0  0  0  0 
 21 22  1  0  0  0  0 
 22 23  1  0  0  0  0 
 23 24  2  0  0  0  0 
 24 20  1  0  0  0  0 
 23 25  1  0  0  0  0 
  6 26  1  1  0  0  0 
 26 27  1  0  0  0  0 
 27  3  1  0  0  0  0 
  4 28  1  0  0  0  0 
 28 29  2  0  0  0  0 
 28 30  1  0  0  0  0 
M  END
> <ID>
CHEBI:94653

> <NAME>
LSM-5644

> <STAR>
2

> <FORMULA>
C16H15N5O7S2

> <MASS>
453.452

> <MONOISOTOPIC_MASS>
453.04129

> <CHARGE>
0

> <SMILES>
C=CC1=C(N2[C@@H]([C@H](C2=O)NC(=O)C(=NOCC(=O)O)C3=CSC(=N3)N)SC1)C(=O)O

> <INCHI>
InChI=1S/C16H15N5O7S2/c1-2-6-4-29-14-10(13(25)21(14)11(6)15(26)27)19-12(24)9(20-28-3-8(22)23)7-5-30-16(17)18-7/h2,5,10,14H,1,3-4H2,(H2,17,18)(H,19,24)(H,22,23)(H,26,27)/t10-,14+/m0/s1

> <INCHIKEY>
OKBVVJOGVLARMR-IINYFYTJSA-N

> <LINCS_ACCESSION>
LSM-5644

$$$$
null
  CDK     0224162201
null
 32 35  0  0  0  0  0  0  0  0999 V2000
    3.7569    0.2223    0.0000 C   0  0  0  0  0  0  0  0  0  0  0  0
    3.4214    0.9760    0.0000 N   0  0  0  0  0  0  0  0  0  0  0  0
    2.9364    1.6434    0.0000 C   0  0  0  0  0  0  0  0  0  0  0  0
    3.4214    2.3109    0.0000 C   0  0  0  0  0  0  0  0  0  0  0  0
    4.2060    2.0559    0.0000 C   0  0  0  0  0  0  0  0  0  0  0  0
    4.2060    1.2309    0.0000 C   0  0  0  0  0  0  0  0  0  0  0  0
    2.7069    0.5635    0.0000 C   0  0  0  0  0  0  0  0  0  0  0  0
    1.9924    0.9760    0.0000 C   0  0  0  0  0  0  0  0  0  0  0  0
    1.2780    0.5635    0.0000 C   0  0  0  0  0  0  0  0  0  0  0  0
    0.5635    0.9760    0.0000 N   0  0  0  0  0  0  0  0  0  0  0  0
    0.5635    1.8010    0.0000 C   0  0  1  0  0  0  0  0  0  0  0  0
   -0.2615    1.8010    0.0000 C   0  0  2  0  0  0  0  0  0  0  0  0
   -0.2615    0.9760    0.0000 C   0  0  0  0  0  0  0  0  0  0  0  0
   -0.8449    0.3926    0.0000 O   0  0  0  0  0  0  0  0  0  0  0  0
   -0.8449    2.3843    0.0000 N   0  0  0  0  0  0  0  0  0  0  0  0
   -0.6314    3.1812    0.0000 C   0  0  0  0  0  0  0  0  0  0  0  0
    0.1655    3.3948    0.0000 O   0  0  0  0  0  0  0  0  0  0  0  0
   -1.2147    3.7646    0.0000 C   0  0  0  0  0  0  0  0  0  0  0  0
   -2.0116    3.5511    0.0000 N   0  0  0  0  0  0  0  0  0  0  0  0
   -2.5950    4.1344    0.0000 O   0  0  0  0  0  0  0  0  0  0  0  0
   -3.3919    3.9209    0.0000 C   0  0  0  0  0  0  0  0  0  0  0  0
   -1.0012    4.5615    0.0000 C   0  0  0  0  0  0  0  0  0  0  0  0
   -1.5204    5.2026    0.0000 C   0  0  0  0  0  0  0  0  0  0  0  0
   -1.0711    5.8945    0.0000 S   0  0  0  0  0  0  0  0  0  0  0  0
   -0.2742    5.6810    0.0000 C   0  0  0  0  0  0  0  0  0  0  0  0
   -0.2310    4.8571    0.0000 N   0  0  0  0  0  0  0  0  0  0  0  0
    0.3670    6.2002    0.0000 N   0  0  0  0  0  0  0  0  0  0  0  0
    1.2780    2.2135    0.0000 S   0  0  0  0  0  0  0  0  0  0  0  0
    1.9924    1.8010    0.0000 C   0  0  0  0  0  0  0  0  0  0  0  0
    1.2780   -0.2615    0.0000 C   0  0  0  0  0  0  0  0  0  0  0  0
    0.5635   -0.6740    0.0000 O   0  0  0  0  0  0  0  0  0  0  0  0
    1.9924   -0.6740    0.0000 O   0  0  0  0  0  0  0  0  0  0  0  0
  1  2  1  0  0  0  0 
  2  3  1  0  0  0  0 
  3  4  1  0  0  0  0 
  4  5  1  0  0  0  0 
  5  6  1  0  0  0  0 
  6  2  1  0  0  0  0 
  2  7  1  0  0  0  0 
  7  8  1  0  0  0  0 
  8  9  2  0  0  0  0 
  9 10  1  0  0  0  0 
 10 11  1  0  0  0  0 
 11 12  1  0  0  0  0 
 12 13  1  0  0  0  0 
 13 10  1  0  0  0  0 
 13 14  2  0  0  0  0 
 12 15  1  6  0  0  0 
 15 16  1  0  0  0  0 
 16 17  2  0  0  0  0 
 16 18  1  0  0  0  0 
 18 19  2  0  0  0  0 
 19 20  1  4  0  0  0 
 20 21  1  0  0  0  0 
 18 22  1  0  0  0  0 
 22 23  2  0  0  0  0 
 23 24  1  0  0  0  0 
 24 25  1  0  0  0  0 
 25 26  2  0  0  0  0 
 26 22  1  0  0  0  0 
 25 27  1  0  0  0  0 
 11 28  1  1  0  0  0 
 28 29  1  0  0  0  0 
 29  8  1  0  0  0  0 
  9 30  1  0  0  0  0 
 30 31  2  0  0  0  0 
 30 32  1  0  0  0  0 
M  CHG  1   2   1
M  END
> <ID>
CHEBI:94672

> <NAME>
LSM-5686

> <STAR>
2

> <FORMULA>
C19H25N6O5S2

> <MASS>
481.572

> <MONOISOTOPIC_MASS>
481.13224

> <CHARGE>
1

> <SMILES>
C[N+]1(CCCC1)CC2=C(N3[C@@H]([C@H](C3=O)NC(=O)C(=NOC)C4=CSC(=N4)N)SC2)C(=O)O

> <INCHI>
InChI=1S/C19H24N6O5S2/c1-25(5-3-4-6-25)7-10-8-31-17-13(16(27)24(17)14(10)18(28)29)22-15(26)12(23-30-2)11-9-32-19(20)21-11/h9,13,17H,3-8H2,1-2H3,(H3-,20,21,22,26,28,29)/p+1/t13-,17+/m0/s1

> <INCHIKEY>
HVFLCNVBZFFHBT-SUMWQHHRSA-O

> <LINCS_ACCESSION>
LSM-5686

$$$$
null
  CDK     0224162201
null
 37 40  0  0  0  0  0  0  0  0999 V2000
   -4.6158   -2.8824    0.0000 C   0  0  0  0  0  0  0  0  0  0  0  0
   -4.4023   -2.0855    0.0000 C   0  0  0  0  0  0  0  0  0  0  0  0
   -4.1887   -1.2886    0.0000 C   0  0  0  0  0  0  0  0  0  0  0  0
   -5.1992   -1.8720    0.0000 C   0  0  0  0  0  0  0  0  0  0  0  0
   -5.7825   -2.4553    0.0000 O   0  0  0  0  0  0  0  0  0  0  0  0
   -5.4127   -1.0751    0.0000 O   0  0  0  0  0  0  0  0  0  0  0  0
   -3.6054   -2.2990    0.0000 O   0  0  0  0  0  0  0  0  0  0  0  0
   -3.0220   -1.7157    0.0000 N   0  0  0  0  0  0  0  0  0  0  0  0
   -2.2251   -1.9292    0.0000 C   0  0  0  0  0  0  0  0  0  0  0  0
   -2.0116   -2.7261    0.0000 C   0  0  0  0  0  0  0  0  0  0  0  0
   -1.2414   -3.0217    0.0000 C   0  0  0  0  0  0  0  0  0  0  0  0
   -1.2846   -3.8456    0.0000 S   0  0  0  0  0  0  0  0  0  0  0  0
   -2.0815   -4.0591    0.0000 C   0  0  0  0  0  0  0  0  0  0  0  0
   -2.5308   -3.3672    0.0000 N   0  0  0  0  0  0  0  0  0  0  0  0
   -2.3771   -4.8293    0.0000 N   0  0  0  0  0  0  0  0  0  0  0  0
   -1.6418   -1.3458    0.0000 C   0  0  0  0  0  0  0  0  0  0  0  0
   -1.8553   -0.5489    0.0000 O   0  0  0  0  0  0  0  0  0  0  0  0
   -0.8449   -1.5593    0.0000 N   0  0  0  0  0  0  0  0  0  0  0  0
   -0.2615   -0.9760    0.0000 C   0  0  1  0  0  0  0  0  0  0  0  0
    0.5635   -0.9760    0.0000 C   0  0  2  0  0  0  0  0  0  0  0  0
    0.5635   -0.1510    0.0000 N   0  0  0  0  0  0  0  0  0  0  0  0
   -0.2615   -0.1510    0.0000 C   0  0  0  0  0  0  0  0  0  0  0  0
   -0.8449    0.4324    0.0000 O   0  0  0  0  0  0  0  0  0  0  0  0
    1.2780    0.2615    0.0000 C   0  0  0  0  0  0  0  0  0  0  0  0
    1.9924   -0.1510    0.0000 C   0  0  0  0  0  0  0  0  0  0  0  0
    1.9924   -0.9760    0.0000 C   0  0  0  0  0  0  0  0  0  0  0  0
    1.2780   -1.3885    0.0000 S   0  0  0  0  0  0  0  0  0  0  0  0
    2.7069    0.2615    0.0000 C   0  0  0  0  0  0  0  0  0  0  0  0
    3.4214   -0.1510    0.0000 N   0  0  0  0  0  0  0  0  0  0  0  0
    4.1358    0.2615    0.0000 C   0  0  0  0  0  0  0  0  0  0  0  0
    4.8503   -0.1510    0.0000 C   0  0  0  0  0  0  0  0  0  0  0  0
    4.8503   -0.9760    0.0000 C   0  0  0  0  0  0  0  0  0  0  0  0
    4.1358   -1.3885    0.0000 C   0  0  0  0  0  0  0  0  0  0  0  0
    3.4214   -0.9760    0.0000 C   0  0  0  0  0  0  0  0  0  0  0  0
    1.2780    1.0865    0.0000 C   0  0  0  0  0  0  0  0  0  0  0  0
    1.9924    1.4990    0.0000 O   0  0  0  0  0  0  0  0  0  0  0  0
    0.5635    1.4990    0.0000 O   0  0  0  0  0  0  0  0  0  0  0  0
  1  2  1  0  0  0  0 
  2  3  1  0  0  0  0 
  2  4  1  0  0  0  0 
  4  5  2  0  0  0  0 
  4  6  1  0  0  0  0 
  2  7  1  0  0  0  0 
  8  7  1  4  0  0  0 
  8  9  2  0  0  0  0 
  9 10  1  0  0  0  0 
 10 11  2  0  0  0  0 
 11 12  1  0  0  0  0 
 12 13  1  0  0  0  0 
 13 14  2  0  0  0  0 
 14 10  1  0  0  0  0 
 13 15  1  0  0  0  0 
  9 16  1  0  0  0  0 
 16 17  2  0  0  0  0 
 16 18  1  0  0  0  0 
 19 18  1  6  0  0  0 
 19 20  1  0  0  0  0 
 20 21  1  0  0  0  0 
 21 22  1  0  0  0  0 
 22 19  1  0  0  0  0 
 22 23  2  0  0  0  0 
 21 24  1  0  0  0  0 
 24 25  2  0  0  0  0 
 25 26  1  0  0  0  0 
 26 27  1  0  0  0  0 
 20 27  1  6  0  0  0 
 25 28  1  0  0  0  0 
 28 29  1  0  0  0  0 
 29 30  2  0  0  0  0 
 30 31  1  0  0  0  0 
 31 32  2  0  0  0  0 
 32 33  1  0  0  0  0 
 33 34  2  0  0  0  0 
 34 29  1  0  0  0  0 
 24 35  1  0  0  0  0 
 35 36  2  0  0  0  0 
 35 37  1  0  0  0  0 
M  CHG  1  29   1
M  END
> <ID>
CHEBI:94676

> <NAME>
(6R,7R)-7-[[2-(2-amino-4-thiazolyl)-2-(2-carboxypropan-2-yloxyimino)-1-oxoethyl]amino]-8-oxo-3-(1-pyridin-1-iumylmethyl)-5-thia-1-azabicyclo[4.2.0]oct-2-ene-2-carboxylic acid

> <STAR>
2

> <FORMULA>
C22H23N6O7S2

> <MASS>
547.587

> <MONOISOTOPIC_MASS>
547.10642

> <CHARGE>
1

> <SMILES>
CC(C)(C(=O)O)ON=C(C1=CSC(=N1)N)C(=O)N[C@H]2[C@@H]3N(C2=O)C(=C(CS3)C[N+]4=CC=CC=C4)C(=O)O

> <INCHI>
InChI=1S/C22H22N6O7S2/c1-22(2,20(33)34)35-26-13(12-10-37-21(23)24-12)16(29)25-14-17(30)28-15(19(31)32)11(9-36-18(14)28)8-27-6-4-3-5-7-27/h3-7,10,14,18H,8-9H2,1-2H3,(H4-,23,24,25,29,31,32,33,34)/p+1/t14-,18-/m1/s1

> <INCHIKEY>
ORFOPKXBNMVMKC-RDTXWAMCSA-O

> <LINCS_ACCESSION>
LSM-5695

$$$$
null
  CDK     0224162202
null
 29 31  0  0  0  0  0  0  0  0999 V2000
   -4.4023   -2.0855    0.0000 C   0  0  0  0  0  0  0  0  0  0  0  0
   -3.6054   -2.2990    0.0000 O   0  0  0  0  0  0  0  0  0  0  0  0
   -3.0220   -1.7157    0.0000 N   0  0  0  0  0  0  0  0  0  0  0  0
   -2.2251   -1.9292    0.0000 C   0  0  0  0  0  0  0  0  0  0  0  0
   -2.0116   -2.7261    0.0000 C   0  0  0  0  0  0  0  0  0  0  0  0
   -1.2414   -3.0217    0.0000 C   0  0  0  0  0  0  0  0  0  0  0  0
   -1.2846   -3.8456    0.0000 C   0  0  0  0  0  0  0  0  0  0  0  0
   -2.0815   -4.0591    0.0000 C   0  0  0  0  0  0  0  0  0  0  0  0
   -2.5308   -3.3672    0.0000 O   0  0  0  0  0  0  0  0  0  0  0  0
   -1.6418   -1.3458    0.0000 C   0  0  0  0  0  0  0  0  0  0  0  0
   -1.8553   -0.5489    0.0000 O   0  0  0  0  0  0  0  0  0  0  0  0
   -0.8449   -1.5593    0.0000 N   0  0  0  0  0  0  0  0  0  0  0  0
   -0.2615   -0.9760    0.0000 C   0  0  1  0  0  0  0  0  0  0  0  0
    0.5635   -0.9760    0.0000 C   0  0  2  0  0  0  0  0  0  0  0  0
    0.5635   -0.1510    0.0000 N   0  0  0  0  0  0  0  0  0  0  0  0
   -0.2615   -0.1510    0.0000 C   0  0  0  0  0  0  0  0  0  0  0  0
   -0.8449    0.4324    0.0000 O   0  0  0  0  0  0  0  0  0  0  0  0
    1.2780    0.2615    0.0000 C   0  0  0  0  0  0  0  0  0  0  0  0
    1.9924   -0.1510    0.0000 C   0  0  0  0  0  0  0  0  0  0  0  0
    1.9924   -0.9760    0.0000 C   0  0  0  0  0  0  0  0  0  0  0  0
    1.2780   -1.3885    0.0000 S   0  0  0  0  0  0  0  0  0  0  0  0
    2.7069    0.2615    0.0000 C   0  0  0  0  0  0  0  0  0  0  0  0
    2.7069    1.0865    0.0000 O   0  0  0  0  0  0  0  0  0  0  0  0
    3.4214    1.4990    0.0000 C   0  0  0  0  0  0  0  0  0  0  0  0
    3.4214    2.3240    0.0000 O   0  0  0  0  0  0  0  0  0  0  0  0
    4.1358    1.0865    0.0000 N   0  0  0  0  0  0  0  0  0  0  0  0
    1.2780    1.0865    0.0000 C   0  0  0  0  0  0  0  0  0  0  0  0
    1.9924    1.4990    0.0000 O   0  0  0  0  0  0  0  0  0  0  0  0
    0.5635    1.4990    0.0000 O   0  0  0  0  0  0  0  0  0  0  0  0
  1  2  1  0  0  0  0 
  3  2  1  4  0  0  0 
  3  4  2  0  0  0  0 
  4  5  1  0  0  0  0 
  5  6  2  0  0  0  0 
  6  7  1  0  0  0  0 
  7  8  2  0  0  0  0 
  8  9  1  0  0  0  0 
  9  5  1  0  0  0  0 
  4 10  1  0  0  0  0 
 10 11  2  0  0  0  0 
 10 12  1  0  0  0  0 
 13 12  1  6  0  0  0 
 13 14  1  0  0  0  0 
 14 15  1  0  0  0  0 
 15 16  1  0  0  0  0 
 16 13  1  0  0  0  0 
 16 17  2  0  0  0  0 
 15 18  1  0  0  0  0 
 18 19  2  0  0  0  0 
 19 20  1  0  0  0  0 
 20 21  1  0  0  0  0 
 14 21  1  6  0  0  0 
 19 22  1  0  0  0  0 
 22 23  1  0  0  0  0 
 23 24  1  0  0  0  0 
 24 25  2  0  0  0  0 
 24 26  1  0  0  0  0 
 18 27  1  0  0  0  0 
 27 28  2  0  0  0  0 
 27 29  1  0  0  0  0 
M  END
> <ID>
CHEBI:94687

> <NAME>
(6R,7R)-3-(carbamoyloxymethyl)-7-[[2-(2-furanyl)-2-methoxyimino-1-oxoethyl]amino]-8-oxo-5-thia-1-azabicyclo[4.2.0]oct-2-ene-2-carboxylic acid

> <STAR>
2

> <FORMULA>
C16H16N4O8S

> <MASS>
424.387

> <MONOISOTOPIC_MASS>
424.06888

> <CHARGE>
0

> <SMILES>
CON=C(C1=CC=CO1)C(=O)N[C@H]2[C@@H]3N(C2=O)C(=C(CS3)COC(=O)N)C(=O)O

> <INCHI>
InChI=1S/C16H16N4O8S/c1-26-19-9(8-3-2-4-27-8)12(21)18-10-13(22)20-11(15(23)24)7(5-28-16(17)25)6-29-14(10)20/h2-4,10,14H,5-6H2,1H3,(H2,17,25)(H,18,21)(H,23,24)/t10-,14-/m1/s1

> <INCHIKEY>
JFPVXVDWJQMJEE-QMTHXVAHSA-N

> <LINCS_ACCESSION>
LSM-5725

$$$$
null
  CDK     0224162202
null
 32 34  0  0  0  0  0  0  0  0999 V2000
    2.5600    1.8968    0.0000 C   0  0  0  0  0  0  0  0  0  0  0  0
    1.9469    1.3448    0.0000 C   0  0  0  0  0  0  0  0  0  0  0  0
    1.4620    0.6773    0.0000 C   0  0  1  0  0  0  0  0  0  0  0  0
    0.6773    0.9323    0.0000 N   0  0  0  0  0  0  0  0  0  0  0  0
    0.6773    1.7573    0.0000 C   0  0  1  0  0  0  0  0  0  0  0  0
    1.4620    2.0122    0.0000 S   0  0  0  0  0  0  0  0  0  0  0  0
   -0.1477    1.7573    0.0000 C   0  0  1  0  0  0  0  0  0  0  0  0
   -0.1477    0.9323    0.0000 C   0  0  0  0  0  0  0  0  0  0  0  0
   -0.7310    0.3489    0.0000 O   0  0  0  0  0  0  0  0  0  0  0  0
   -0.7310    2.3406    0.0000 N   0  0  0  0  0  0  0  0  0  0  0  0
   -1.5279    2.1271    0.0000 C   0  0  0  0  0  0  0  0  0  0  0  0
   -1.7414    1.3302    0.0000 O   0  0  0  0  0  0  0  0  0  0  0  0
   -2.1113    2.7105    0.0000 C   0  0  1  0  0  0  0  0  0  0  0  0
   -2.9082    2.4970    0.0000 C   0  0  0  0  0  0  0  0  0  0  0  0
   -3.1217    1.7001    0.0000 C   0  0  0  0  0  0  0  0  0  0  0  0
   -3.9186    1.4865    0.0000 C   0  0  0  0  0  0  0  0  0  0  0  0
   -4.5019    2.0699    0.0000 C   0  0  0  0  0  0  0  0  0  0  0  0
   -4.2884    2.8668    0.0000 C   0  0  0  0  0  0  0  0  0  0  0  0
   -3.4915    3.0803    0.0000 C   0  0  0  0  0  0  0  0  0  0  0  0
   -1.8977    3.5074    0.0000 N   0  0  0  0  0  0  0  0  0  0  0  0
    1.7169   -0.1073    0.0000 C   0  0  0  0  0  0  0  0  0  0  0  0
    1.1649   -0.7204    0.0000 O   0  0  0  0  0  0  0  0  0  0  0  0
    2.5239   -0.2788    0.0000 O   0  0  0  0  0  0  0  0  0  0  0  0
    2.7788   -1.0634    0.0000 C   0  0  0  0  0  0  0  0  0  0  0  0
    3.5858   -1.2350    0.0000 O   0  0  0  0  0  0  0  0  0  0  0  0
    3.8407   -2.0196    0.0000 C   0  0  0  0  0  0  0  0  0  0  0  0
    3.2887   -2.6327    0.0000 O   0  0  0  0  0  0  0  0  0  0  0  0
    4.6477   -2.1911    0.0000 C   0  0  0  0  0  0  0  0  0  0  0  0
    5.4547   -2.3626    0.0000 C   0  0  0  0  0  0  0  0  0  0  0  0
    4.4762   -2.9981    0.0000 C   0  0  0  0  0  0  0  0  0  0  0  0
    4.8192   -1.3841    0.0000 C   0  0  0  0  0  0  0  0  0  0  0  0
    2.5600    0.7927    0.0000 C   0  0  0  0  0  0  0  0  0  0  0  0
  1  2  1  0  0  0  0 
  2  3  1  0  0  0  0 
  3  4  1  0  0  0  0 
  4  5  1  0  0  0  0 
  5  6  1  6  0  0  0 
  6  2  1  0  0  0  0 
  5  7  1  0  0  0  0 
  7  8  1  0  0  0  0 
  8  4  1  0  0  0  0 
  8  9  2  0  0  0  0 
  7 10  1  1  0  0  0 
 10 11  1  0  0  0  0 
 11 12  2  0  0  0  0 
 11 13  1  0  0  0  0 
 13 14  1  0  0  0  0 
 14 15  2  0  0  0  0 
 15 16  1  0  0  0  0 
 16 17  2  0  0  0  0 
 17 18  1  0  0  0  0 
 18 19  2  0  0  0  0 
 19 14  1  0  0  0  0 
 13 20  1  1  0  0  0 
  3 21  1  6  0  0  0 
 21 22  2  0  0  0  0 
 21 23  1  0  0  0  0 
 23 24  1  0  0  0  0 
 24 25  1  0  0  0  0 
 25 26  1  0  0  0  0 
 26 27  2  0  0  0  0 
 26 28  1  0  0  0  0 
 28 29  1  0  0  0  0 
 28 30  1  0  0  0  0 
 28 31  1  0  0  0  0 
  2 32  1  0  0  0  0 
M  END
> <ID>
CHEBI:94709

> <NAME>
2,2-dimethylpropanoyloxymethyl (2S,5S,6R)-6-[[(2R)-2-amino-2-phenylacetyl]amino]-3,3-dimethyl-7-oxo-4-thia-1-azabicyclo[3.2.0]heptane-2-carboxylate

> <STAR>
2

> <FORMULA>
C22H29N3O6S

> <MASS>
463.549

> <MONOISOTOPIC_MASS>
463.17771

> <CHARGE>
0

> <SMILES>
CC1([C@@H](N2[C@@H](S1)[C@@H](C2=O)NC(=O)[C@@H](C3=CC=CC=C3)N)C(=O)OCOC(=O)C(C)(C)C)C

> <INCHI>
InChI=1S/C22H29N3O6S/c1-21(2,3)20(29)31-11-30-19(28)15-22(4,5)32-18-14(17(27)25(15)18)24-16(26)13(23)12-9-7-6-8-10-12/h6-10,13-15,18H,11,23H2,1-5H3,(H,24,26)/t13-,14-,15+,18+/m1/s1

> <INCHIKEY>
ZEMIJUDPLILVNQ-BSXFFOKHSA-N

> <LINCS_ACCESSION>
LSM-5767

$$$$
null
  CDK     0224162202
null
 30 32  0  0  0  0  0  0  0  0999 V2000
    4.8503    0.9760    0.0000 C   0  0  0  0  0  0  0  0  0  0  0  0
    4.1358    0.5635    0.0000 C   0  0  0  0  0  0  0  0  0  0  0  0
    4.1358   -0.2615    0.0000 O   0  0  0  0  0  0  0  0  0  0  0  0
    3.4214    0.9760    0.0000 O   0  0  0  0  0  0  0  0  0  0  0  0
    2.7069    0.5635    0.0000 C   0  0  0  0  0  0  0  0  0  0  0  0
    1.9924    0.9760    0.0000 C   0  0  0  0  0  0  0  0  0  0  0  0
    1.2780    0.5635    0.0000 C   0  0  0  0  0  0  0  0  0  0  0  0
    0.5635    0.9760    0.0000 N   0  0  0  0  0  0  0  0  0  0  0  0
    0.5635    1.8010    0.0000 C   0  0  1  0  0  0  0  0  0  0  0  0
   -0.2615    1.8010    0.0000 C   0  0  1  0  0  0  0  0  0  0  0  0
   -0.2615    0.9760    0.0000 C   0  0  0  0  0  0  0  0  0  0  0  0
   -0.8449    0.3926    0.0000 O   0  0  0  0  0  0  0  0  0  0  0  0
   -0.8449    2.3843    0.0000 N   0  0  0  0  0  0  0  0  0  0  0  0
   -1.6418    2.1708    0.0000 C   0  0  0  0  0  0  0  0  0  0  0  0
   -2.2251    2.7542    0.0000 O   0  0  0  0  0  0  0  0  0  0  0  0
   -1.8553    1.3739    0.0000 C   0  0  0  0  0  0  0  0  0  0  0  0
   -1.2719    0.7906    0.0000 N   0  0  0  0  0  0  0  0  0  0  0  0
   -1.4855   -0.0063    0.0000 O   0  0  0  0  0  0  0  0  0  0  0  0
   -0.9021   -0.5897    0.0000 C   0  0  0  0  0  0  0  0  0  0  0  0
   -2.6522    1.1604    0.0000 C   0  0  0  0  0  0  0  0  0  0  0  0
   -2.9478    0.3902    0.0000 C   0  0  0  0  0  0  0  0  0  0  0  0
   -3.7717    0.4334    0.0000 S   0  0  0  0  0  0  0  0  0  0  0  0
   -3.9852    1.2303    0.0000 C   0  0  0  0  0  0  0  0  0  0  0  0
   -3.2933    1.6796    0.0000 N   0  0  0  0  0  0  0  0  0  0  0  0
   -4.7554    1.5259    0.0000 N   0  0  0  0  0  0  0  0  0  0  0  0
    1.2780    2.2135    0.0000 S   0  0  0  0  0  0  0  0  0  0  0  0
    1.9924    1.8010    0.0000 C   0  0  0  0  0  0  0  0  0  0  0  0
    1.2780   -0.2615    0.0000 C   0  0  0  0  0  0  0  0  0  0  0  0
    0.5635   -0.6740    0.0000 O   0  0  0  0  0  0  0  0  0  0  0  0
    1.9924   -0.6740    0.0000 O   0  0  0  0  0  0  0  0  0  0  0  0
  1  2  1  0  0  0  0 
  2  3  2  0  0  0  0 
  2  4  1  0  0  0  0 
  4  5  1  0  0  0  0 
  5  6  1  0  0  0  0 
  6  7  2  0  0  0  0 
  7  8  1  0  0  0  0 
  8  9  1  0  0  0  0 
  9 10  1  0  0  0  0 
 10 11  1  0  0  0  0 
 11  8  1  0  0  0  0 
 11 12  2  0  0  0  0 
 10 13  1  1  0  0  0 
 13 14  1  0  0  0  0 
 14 15  2  0  0  0  0 
 14 16  1  0  0  0  0 
 16 17  2  0  0  0  0 
 17 18  1  4  0  0  0 
 18 19  1  0  0  0  0 
 16 20  1  0  0  0  0 
 20 21  2  0  0  0  0 
 21 22  1  0  0  0  0 
 22 23  1  0  0  0  0 
 23 24  2  0  0  0  0 
 24 20  1  0  0  0  0 
 23 25  1  0  0  0  0 
  9 26  1  1  0  0  0 
 26 27  1  0  0  0  0 
 27  6  1  0  0  0  0 
  7 28  1  0  0  0  0 
 28 29  2  0  0  0  0 
 28 30  1  0  0  0  0 
M  END
> <ID>
CHEBI:94739

> <NAME>
(6R,7R)-3-(acetyloxymethyl)-7-[[2-(2-amino-4-thiazolyl)-2-methoxyimino-1-oxoethyl]amino]-8-oxo-5-thia-1-azabicyclo[4.2.0]oct-2-ene-2-carboxylic acid

> <STAR>
2

> <FORMULA>
C16H17N5O7S2

> <MASS>
455.468

> <MONOISOTOPIC_MASS>
455.05694

> <CHARGE>
0

> <SMILES>
CC(=O)OCC1=C(N2[C@@H]([C@@H](C2=O)NC(=O)C(=NOC)C3=CSC(=N3)N)SC1)C(=O)O

> <INCHI>
InChI=1S/C16H17N5O7S2/c1-6(22)28-3-7-4-29-14-10(13(24)21(14)11(7)15(25)26)19-12(23)9(20-27-2)8-5-30-16(17)18-8/h5,10,14H,3-4H2,1-2H3,(H2,17,18)(H,19,23)(H,25,26)/t10-,14-/m1/s1

> <INCHIKEY>
GPRBEKHLDVQUJE-QMTHXVAHSA-N

> <LINCS_ACCESSION>
LSM-5834

$$$$
null
  CDK     0224162202
null
 36 39  0  0  0  0  0  0  0  0999 V2000
    3.1194    1.8010    0.0000 C   0  0  0  0  0  0  0  0  0  0  0  0
    3.1194    0.9760    0.0000 C   0  0  0  0  0  0  0  0  0  0  0  0
    2.4049    0.5635    0.0000 C   0  0  0  0  0  0  0  0  0  0  0  0
    1.6905    0.9760    0.0000 N   0  0  0  0  0  0  0  0  0  0  0  0
    1.6905    1.8010    0.0000 C   0  0  2  0  0  0  0  0  0  0  0  0
    2.4049    2.2135    0.0000 S   0  0  0  0  0  0  0  0  0  0  0  0
    0.8655    1.8010    0.0000 C   0  0  2  0  0  0  0  0  0  0  0  0
    0.8655    0.9760    0.0000 C   0  0  0  0  0  0  0  0  0  0  0  0
    0.2821    0.3926    0.0000 O   0  0  0  0  0  0  0  0  0  0  0  0
    0.2821    2.3843    0.0000 N   0  0  0  0  0  0  0  0  0  0  0  0
   -0.5148    2.1708    0.0000 C   0  0  0  0  0  0  0  0  0  0  0  0
   -0.7283    1.3739    0.0000 O   0  0  0  0  0  0  0  0  0  0  0  0
   -1.0982    2.7542    0.0000 C   0  0  1  0  0  0  0  0  0  0  0  0
   -1.8950    2.5407    0.0000 C   0  0  0  0  0  0  0  0  0  0  0  0
   -2.1086    1.7438    0.0000 C   0  0  0  0  0  0  0  0  0  0  0  0
   -2.9055    1.5302    0.0000 C   0  0  0  0  0  0  0  0  0  0  0  0
   -3.4888    2.1136    0.0000 C   0  0  0  0  0  0  0  0  0  0  0  0
   -3.2753    2.9105    0.0000 C   0  0  0  0  0  0  0  0  0  0  0  0
   -2.4784    3.1240    0.0000 C   0  0  0  0  0  0  0  0  0  0  0  0
   -0.8846    3.5511    0.0000 S   0  0  0  0  0  0  0  0  0  0  0  0
   -0.0877    3.3375    0.0000 O   0  0  0  0  0  0  0  0  0  0  0  0
   -1.6815    3.7646    0.0000 O   0  0  0  0  0  0  0  0  0  0  0  0
   -0.6711    4.3480    0.0000 O   0  0  0  0  0  0  0  0  0  0  0  0
    2.4049   -0.2615    0.0000 C   0  0  0  0  0  0  0  0  0  0  0  0
    1.6905   -0.6740    0.0000 O   0  0  0  0  0  0  0  0  0  0  0  0
    3.1194   -0.6740    0.0000 O   0  0  0  0  0  0  0  0  0  0  0  0
    3.8339    0.5635    0.0000 C   0  0  0  0  0  0  0  0  0  0  0  0
    4.5483    0.9760    0.0000 N   0  0  0  0  0  0  0  0  0  0  0  0
    4.5483    1.8010    0.0000 C   0  0  0  0  0  0  0  0  0  0  0  0
    5.2628    2.2135    0.0000 C   0  0  0  0  0  0  0  0  0  0  0  0
    5.9773    1.8010    0.0000 C   0  0  0  0  0  0  0  0  0  0  0  0
    5.9773    0.9760    0.0000 C   0  0  0  0  0  0  0  0  0  0  0  0
    5.2628    0.5635    0.0000 C   0  0  0  0  0  0  0  0  0  0  0  0
    6.6918    2.2135    0.0000 C   0  0  0  0  0  0  0  0  0  0  0  0
    6.6918    3.0385    0.0000 O   0  0  0  0  0  0  0  0  0  0  0  0
    7.4062    1.8010    0.0000 N   0  0  0  0  0  0  0  0  0  0  0  0
  1  2  1  0  0  0  0 
  2  3  2  0  0  0  0 
  3  4  1  0  0  0  0 
  4  5  1  0  0  0  0 
  5  6  1  1  0  0  0 
  6  1  1  0  0  0  0 
  5  7  1  0  0  0  0 
  7  8  1  0  0  0  0 
  8  4  1  0  0  0  0 
  8  9  2  0  0  0  0 
  7 10  1  6  0  0  0 
 10 11  1  0  0  0  0 
 11 12  2  0  0  0  0 
 13 11  1  1  0  0  0 
 13 14  1  0  0  0  0 
 14 15  2  0  0  0  0 
 15 16  1  0  0  0  0 
 16 17  2  0  0  0  0 
 17 18  1  0  0  0  0 
 18 19  2  0  0  0  0 
 19 14  1  0  0  0  0 
 13 20  1  0  0  0  0 
 20 21  2  0  0  0  0 
 20 22  2  0  0  0  0 
 20 23  1  0  0  0  0 
  3 24  1  0  0  0  0 
 24 25  2  0  0  0  0 
 24 26  1  0  0  0  0 
  2 27  1  0  0  0  0 
 27 28  1  0  0  0  0 
 28 29  2  0  0  0  0 
 29 30  1  0  0  0  0 
 30 31  2  0  0  0  0 
 31 32  1  0  0  0  0 
 32 33  2  0  0  0  0 
 33 28  1  0  0  0  0 
 31 34  1  0  0  0  0 
 34 35  2  0  0  0  0 
 34 36  1  0  0  0  0 
M  CHG  1  28   1
M  END
> <ID>
CHEBI:94753

> <NAME>
(6R,7S)-3-[(4-carbamoyl-1-pyridin-1-iumyl)methyl]-8-oxo-7-[[(2R)-1-oxo-2-phenyl-2-sulfoethyl]amino]-5-thia-1-azabicyclo[4.2.0]oct-2-ene-2-carboxylic acid

> <STAR>
2

> <FORMULA>
C22H21N4O8S2

> <MASS>
533.557

> <MONOISOTOPIC_MASS>
533.07953

> <CHARGE>
1

> <SMILES>
C1C(=C(N2[C@H](S1)[C@H](C2=O)NC(=O)[C@@H](C3=CC=CC=C3)S(=O)(=O)O)C(=O)O)C[N+]4=CC=C(C=C4)C(=O)N

> <INCHI>
InChI=1S/C22H20N4O8S2/c23-18(27)13-6-8-25(9-7-13)10-14-11-35-21-15(20(29)26(21)16(14)22(30)31)24-19(28)17(36(32,33)34)12-4-2-1-3-5-12/h1-9,15,17,21H,10-11H2,(H4-,23,24,27,28,30,31,32,33,34)/p+1/t15-,17+,21+/m0/s1

> <INCHIKEY>
SYLKGLMBLAAGSC-LUQKVYGDSA-O

> <LINCS_ACCESSION>
LSM-5865

$$$$
null
  CDK     0224162202
null
 26 28  0  0  0  0  0  0  0  0999 V2000
    4.8503    0.9760    0.0000 C   0  0  0  0  0  0  0  0  0  0  0  0
    4.1358    0.5635    0.0000 C   0  0  0  0  0  0  0  0  0  0  0  0
    4.1358   -0.2615    0.0000 O   0  0  0  0  0  0  0  0  0  0  0  0
    3.4214    0.9760    0.0000 O   0  0  0  0  0  0  0  0  0  0  0  0
    2.7069    0.5635    0.0000 C   0  0  0  0  0  0  0  0  0  0  0  0
    1.9924    0.9760    0.0000 C   0  0  0  0  0  0  0  0  0  0  0  0
    1.2780    0.5635    0.0000 C   0  0  0  0  0  0  0  0  0  0  0  0
    0.5635    0.9760    0.0000 N   0  0  0  0  0  0  0  0  0  0  0  0
    0.5635    1.8010    0.0000 C   0  0  1  0  0  0  0  0  0  0  0  0
   -0.2615    1.8010    0.0000 C   0  0  2  0  0  0  0  0  0  0  0  0
   -0.2615    0.9760    0.0000 C   0  0  0  0  0  0  0  0  0  0  0  0
   -0.8449    0.3926    0.0000 O   0  0  0  0  0  0  0  0  0  0  0  0
   -0.8449    2.3843    0.0000 N   0  0  0  0  0  0  0  0  0  0  0  0
   -0.6314    3.1812    0.0000 C   0  0  0  0  0  0  0  0  0  0  0  0
    0.1655    3.3948    0.0000 O   0  0  0  0  0  0  0  0  0  0  0  0
   -1.2147    3.7646    0.0000 C   0  0  0  0  0  0  0  0  0  0  0  0
   -1.0012    4.5615    0.0000 C   0  0  0  0  0  0  0  0  0  0  0  0
   -1.5204    5.2026    0.0000 C   0  0  0  0  0  0  0  0  0  0  0  0
   -1.0711    5.8945    0.0000 C   0  0  0  0  0  0  0  0  0  0  0  0
   -0.2742    5.6810    0.0000 C   0  0  0  0  0  0  0  0  0  0  0  0
   -0.2310    4.8571    0.0000 S   0  0  0  0  0  0  0  0  0  0  0  0
    1.2780    2.2135    0.0000 S   0  0  0  0  0  0  0  0  0  0  0  0
    1.9924    1.8010    0.0000 C   0  0  0  0  0  0  0  0  0  0  0  0
    1.2780   -0.2615    0.0000 C   0  0  0  0  0  0  0  0  0  0  0  0
    0.5635   -0.6740    0.0000 O   0  0  0  0  0  0  0  0  0  0  0  0
    1.9924   -0.6740    0.0000 O   0  0  0  0  0  0  0  0  0  0  0  0
  1  2  1  0  0  0  0 
  2  3  2  0  0  0  0 
  2  4  1  0  0  0  0 
  4  5  1  0  0  0  0 
  5  6  1  0  0  0  0 
  6  7  2  0  0  0  0 
  7  8  1  0  0  0  0 
  8  9  1  0  0  0  0 
  9 10  1  0  0  0  0 
 10 11  1  0  0  0  0 
 11  8  1  0  0  0  0 
 11 12  2  0  0  0  0 
 10 13  1  6  0  0  0 
 13 14  1  0  0  0  0 
 14 15  2  0  0  0  0 
 14 16  1  0  0  0  0 
 16 17  1  0  0  0  0 
 17 18  2  0  0  0  0 
 18 19  1  0  0  0  0 
 19 20  2  0  0  0  0 
 20 21  1  0  0  0  0 
 21 17  1  0  0  0  0 
  9 22  1  1  0  0  0 
 22 23  1  0  0  0  0 
 23  6  1  0  0  0  0 
  7 24  1  0  0  0  0 
 24 25  2  0  0  0  0 
 24 26  1  0  0  0  0 
M  END
> <ID>
CHEBI:94784

> <NAME>
(6R,7S)-3-(acetyloxymethyl)-8-oxo-7-[(1-oxo-2-thiophen-2-ylethyl)amino]-5-thia-1-azabicyclo[4.2.0]oct-2-ene-2-carboxylic acid

> <STAR>
2

> <FORMULA>
C16H16N2O6S2

> <MASS>
396.441

> <MONOISOTOPIC_MASS>
396.04498

> <CHARGE>
0

> <SMILES>
CC(=O)OCC1=C(N2[C@@H]([C@H](C2=O)NC(=O)CC3=CC=CS3)SC1)C(=O)O

> <INCHI>
InChI=1S/C16H16N2O6S2/c1-8(19)24-6-9-7-26-15-12(14(21)18(15)13(9)16(22)23)17-11(20)5-10-3-2-4-25-10/h2-4,12,15H,5-7H2,1H3,(H,17,20)(H,22,23)/t12-,15+/m0/s1

> <INCHIKEY>
XIURVHNZVLADCM-SWLSCSKDSA-N

> <LINCS_ACCESSION>
LSM-5929

$$$$
null
  CDK     0224162205
null
 25 27  0  0  0  0  0  0  0  0999 V2000
    2.5600    1.8968    0.0000 C   0  0  0  0  0  0  0  0  0  0  0  0
    1.9469    1.3448    0.0000 C   0  0  0  0  0  0  0  0  0  0  0  0
    1.4620    0.6773    0.0000 C   0  0  1  0  0  0  0  0  0  0  0  0
    0.6773    0.9323    0.0000 N   0  0  0  0  0  0  0  0  0  0  0  0
    0.6773    1.7573    0.0000 C   0  0  2  0  0  0  0  0  0  0  0  0
    1.4620    2.0122    0.0000 S   0  0  0  0  0  0  0  0  0  0  0  0
   -0.1477    1.7573    0.0000 C   0  0  1  0  0  0  0  0  0  0  0  0
   -0.1477    0.9323    0.0000 C   0  0  0  0  0  0  0  0  0  0  0  0
   -0.7310    0.3489    0.0000 O   0  0  0  0  0  0  0  0  0  0  0  0
   -0.7310    2.3406    0.0000 N   0  0  0  0  0  0  0  0  0  0  0  0
   -1.5279    2.1271    0.0000 C   0  0  0  0  0  0  0  0  0  0  0  0
   -1.7414    1.3302    0.0000 O   0  0  0  0  0  0  0  0  0  0  0  0
   -2.1113    2.7105    0.0000 C   0  0  2  0  0  0  0  0  0  0  0  0
   -2.9082    2.4970    0.0000 C   0  0  0  0  0  0  0  0  0  0  0  0
   -3.1217    1.7001    0.0000 C   0  0  0  0  0  0  0  0  0  0  0  0
   -3.9186    1.4865    0.0000 C   0  0  0  0  0  0  0  0  0  0  0  0
   -4.5019    2.0699    0.0000 C   0  0  0  0  0  0  0  0  0  0  0  0
   -4.2884    2.8668    0.0000 C   0  0  0  0  0  0  0  0  0  0  0  0
   -3.4915    3.0803    0.0000 C   0  0  0  0  0  0  0  0  0  0  0  0
   -5.2988    1.8564    0.0000 O   0  0  0  0  0  0  0  0  0  0  0  0
   -1.8977    3.5074    0.0000 N   0  0  0  0  0  0  0  0  0  0  0  0
    1.7169   -0.1073    0.0000 C   0  0  0  0  0  0  0  0  0  0  0  0
    2.5239   -0.2788    0.0000 O   0  0  0  0  0  0  0  0  0  0  0  0
    1.1649   -0.7204    0.0000 O   0  0  0  0  0  0  0  0  0  0  0  0
    2.5600    0.7927    0.0000 C   0  0  0  0  0  0  0  0  0  0  0  0
  1  2  1  0  0  0  0 
  2  3  1  0  0  0  0 
  3  4  1  0  0  0  0 
  4  5  1  0  0  0  0 
  5  6  1  1  0  0  0 
  6  2  1  0  0  0  0 
  5  7  1  0  0  0  0 
  7  8  1  0  0  0  0 
  8  4  1  0  0  0  0 
  8  9  2  0  0  0  0 
  7 10  1  1  0  0  0 
 10 11  1  0  0  0  0 
 11 12  2  0  0  0  0 
 11 13  1  0  0  0  0 
 13 14  1  0  0  0  0 
 14 15  2  0  0  0  0 
 15 16  1  0  0  0  0 
 16 17  2  0  0  0  0 
 17 18  1  0  0  0  0 
 18 19  2  0  0  0  0 
 19 14  1  0  0  0  0 
 17 20  1  0  0  0  0 
 13 21  1  6  0  0  0 
  3 22  1  6  0  0  0 
 22 23  2  0  0  0  0 
 22 24  1  0  0  0  0 
  2 25  1  0  0  0  0 
M  END
> <ID>
CHEBI:95232

> <NAME>
(2S,5R,6R)-6-[[(2S)-2-amino-2-(4-hydroxyphenyl)-1-oxoethyl]amino]-3,3-dimethyl-7-oxo-4-thia-1-azabicyclo[3.2.0]heptane-2-carboxylic acid

> <STAR>
2

> <FORMULA>
C16H19N3O5S

> <MASS>
365.406

> <MONOISOTOPIC_MASS>
365.10454

> <CHARGE>
0

> <SMILES>
CC1([C@@H](N2[C@H](S1)[C@@H](C2=O)NC(=O)[C@H](C3=CC=C(C=C3)O)N)C(=O)O)C

> <INCHI>
InChI=1S/C16H19N3O5S/c1-16(2)11(15(23)24)19-13(22)10(14(19)25-16)18-12(21)9(17)7-3-5-8(20)6-4-7/h3-6,9-11,14,20H,17H2,1-2H3,(H,18,21)(H,23,24)/t9-,10+,11-,14+/m0/s1

> <INCHIKEY>
LSQZJLSUYDQPKJ-BBGACYKPSA-N

> <LINCS_ACCESSION>
LSM-6540

$$$$
null
  CDK     0224162205
null
 31 34  0  0  0  0  0  0  0  0999 V2000
    3.1194    1.8010    0.0000 C   0  0  0  0  0  0  0  0  0  0  0  0
    3.1194    0.9760    0.0000 C   0  0  0  0  0  0  0  0  0  0  0  0
    2.4049    0.5635    0.0000 C   0  0  0  0  0  0  0  0  0  0  0  0
    1.6905    0.9760    0.0000 N   0  0  0  0  0  0  0  0  0  0  0  0
    1.6905    1.8010    0.0000 C   0  0  2  0  0  0  0  0  0  0  0  0
    2.4049    2.2135    0.0000 S   0  0  0  0  0  0  0  0  0  0  0  0
    0.8655    1.8010    0.0000 C   0  0  1  0  0  0  0  0  0  0  0  0
    0.8655    0.9760    0.0000 C   0  0  0  0  0  0  0  0  0  0  0  0
    0.2821    0.3926    0.0000 O   0  0  0  0  0  0  0  0  0  0  0  0
    0.2821    2.3843    0.0000 N   0  0  0  0  0  0  0  0  0  0  0  0
   -0.5148    2.1708    0.0000 C   0  0  0  0  0  0  0  0  0  0  0  0
   -0.7283    1.3739    0.0000 O   0  0  0  0  0  0  0  0  0  0  0  0
   -1.0982    2.7542    0.0000 C   0  0  0  0  0  0  0  0  0  0  0  0
   -1.8950    2.5407    0.0000 C   0  0  0  0  0  0  0  0  0  0  0  0
   -2.1907    1.7705    0.0000 C   0  0  0  0  0  0  0  0  0  0  0  0
   -3.0146    1.8136    0.0000 C   0  0  0  0  0  0  0  0  0  0  0  0
   -3.2281    2.6105    0.0000 C   0  0  0  0  0  0  0  0  0  0  0  0
   -2.5362    3.0598    0.0000 S   0  0  0  0  0  0  0  0  0  0  0  0
    2.4049   -0.2615    0.0000 C   0  0  0  0  0  0  0  0  0  0  0  0
    1.6905   -0.6740    0.0000 O   0  0  0  0  0  0  0  0  0  0  0  0
    3.1194   -0.6740    0.0000 O   0  0  0  0  0  0  0  0  0  0  0  0
    3.8339    0.5635    0.0000 C   0  0  0  0  0  0  0  0  0  0  0  0
    4.5483    0.9760    0.0000 N   0  0  0  0  0  0  0  0  0  0  0  0
    4.5483    1.8010    0.0000 C   0  0  0  0  0  0  0  0  0  0  0  0
    5.2628    2.2135    0.0000 C   0  0  0  0  0  0  0  0  0  0  0  0
    5.9773    1.8010    0.0000 C   0  0  0  0  0  0  0  0  0  0  0  0
    5.9773    0.9760    0.0000 C   0  0  0  0  0  0  0  0  0  0  0  0
    5.2628    0.5635    0.0000 C   0  0  0  0  0  0  0  0  0  0  0  0
    6.6918    2.2135    0.0000 C   0  0  0  0  0  0  0  0  0  0  0  0
    6.6918    3.0385    0.0000 O   0  0  0  0  0  0  0  0  0  0  0  0
    7.4062    1.8010    0.0000 N   0  0  0  0  0  0  0  0  0  0  0  0
  1  2  1  0  0  0  0 
  2  3  2  0  0  0  0 
  3  4  1  0  0  0  0 
  4  5  1  0  0  0  0 
  5  6  1  1  0  0  0 
  6  1  1  0  0  0  0 
  5  7  1  0  0  0  0 
  7  8  1  0  0  0  0 
  8  4  1  0  0  0  0 
  8  9  2  0  0  0  0 
  7 10  1  1  0  0  0 
 10 11  1  0  0  0  0 
 11 12  2  0  0  0  0 
 11 13  1  0  0  0  0 
 13 14  1  0  0  0  0 
 14 15  2  0  0  0  0 
 15 16  1  0  0  0  0 
 16 17  2  0  0  0  0 
 17 18  1  0  0  0  0 
 18 14  1  0  0  0  0 
  3 19  1  0  0  0  0 
 19 20  2  0  0  0  0 
 19 21  1  0  0  0  0 
  2 22  1  0  0  0  0 
 22 23  1  0  0  0  0 
 23 24  2  0  0  0  0 
 24 25  1  0  0  0  0 
 25 26  2  0  0  0  0 
 26 27  1  0  0  0  0 
 27 28  2  0  0  0  0 
 28 23  1  0  0  0  0 
 26 29  1  0  0  0  0 
 29 30  2  0  0  0  0 
 29 31  1  0  0  0  0 
M  CHG  1  23   1
M  END
> <ID>
CHEBI:95238

> <NAME>
(6R,7R)-3-[(4-carbamoyl-1-pyridin-1-iumyl)methyl]-8-oxo-7-[(1-oxo-2-thiophen-2-ylethyl)amino]-5-thia-1-azabicyclo[4.2.0]oct-2-ene-2-carboxylic acid

> <STAR>
2

> <FORMULA>
C20H19N4O5S2

> <MASS>
459.522

> <MONOISOTOPIC_MASS>
459.07914

> <CHARGE>
1

> <SMILES>
C1C(=C(N2[C@H](S1)[C@@H](C2=O)NC(=O)CC3=CC=CS3)C(=O)O)C[N+]4=CC=C(C=C4)C(=O)N

> <INCHI>
InChI=1S/C20H18N4O5S2/c21-17(26)11-3-5-23(6-4-11)9-12-10-31-19-15(18(27)24(19)16(12)20(28)29)22-14(25)8-13-2-1-7-30-13/h1-7,15,19H,8-10H2,(H3-,21,22,25,26,28,29)/p+1/t15-,19-/m1/s1

> <INCHIKEY>
FMZXNVLFJHCSAF-DNVCBOLYSA-O

> <LINCS_ACCESSION>
LSM-6554

$$$$
null
  CDK     0224162205
null
 31 34  0  0  0  0  0  0  0  0999 V2000
    3.1194    1.8010    0.0000 C   0  0  0  0  0  0  0  0  0  0  0  0
    3.1194    0.9760    0.0000 C   0  0  0  0  0  0  0  0  0  0  0  0
    2.4049    0.5635    0.0000 C   0  0  0  0  0  0  0  0  0  0  0  0
    1.6905    0.9760    0.0000 N   0  0  0  0  0  0  0  0  0  0  0  0
    1.6905    1.8010    0.0000 C   0  0  2  0  0  0  0  0  0  0  0  0
    2.4049    2.2135    0.0000 S   0  0  0  0  0  0  0  0  0  0  0  0
    0.8655    1.8010    0.0000 C   0  0  1  0  0  0  0  0  0  0  0  0
    0.8655    0.9760    0.0000 C   0  0  0  0  0  0  0  0  0  0  0  0
    0.2821    0.3926    0.0000 O   0  0  0  0  0  0  0  0  0  0  0  0
    0.2821    2.3843    0.0000 N   0  0  0  0  0  0  0  0  0  0  0  0
   -0.5148    2.1708    0.0000 C   0  0  0  0  0  0  0  0  0  0  0  0
   -0.7283    1.3739    0.0000 O   0  0  0  0  0  0  0  0  0  0  0  0
   -1.0982    2.7542    0.0000 C   0  0  0  0  0  0  0  0  0  0  0  0
   -1.8950    2.5407    0.0000 C   0  0  0  0  0  0  0  0  0  0  0  0
   -2.1907    1.7705    0.0000 C   0  0  0  0  0  0  0  0  0  0  0  0
   -3.0146    1.8136    0.0000 C   0  0  0  0  0  0  0  0  0  0  0  0
   -3.2281    2.6105    0.0000 C   0  0  0  0  0  0  0  0  0  0  0  0
   -2.5362    3.0598    0.0000 S   0  0  0  0  0  0  0  0  0  0  0  0
    2.4049   -0.2615    0.0000 C   0  0  0  0  0  0  0  0  0  0  0  0
    1.6905   -0.6740    0.0000 O   0  0  0  0  0  0  0  0  0  0  0  0
    3.1194   -0.6740    0.0000 O   0  0  0  0  0  0  0  0  0  0  0  0
    3.8339    0.5635    0.0000 C   0  0  0  0  0  0  0  0  0  0  0  0
    4.5483    0.9760    0.0000 N   0  0  0  0  0  0  0  0  0  0  0  0
    4.5483    1.8010    0.0000 C   0  0  0  0  0  0  0  0  0  0  0  0
    5.2628    2.2135    0.0000 C   0  0  0  0  0  0  0  0  0  0  0  0
    5.9773    1.8010    0.0000 C   0  0  0  0  0  0  0  0  0  0  0  0
    5.9773    0.9760    0.0000 C   0  0  0  0  0  0  0  0  0  0  0  0
    5.2628    0.5635    0.0000 C   0  0  0  0  0  0  0  0  0  0  0  0
    6.6918    2.2135    0.0000 C   0  0  0  0  0  0  0  0  0  0  0  0
    6.6918    3.0385    0.0000 O   0  0  0  0  0  0  0  0  0  0  0  0
    7.4062    1.8010    0.0000 N   0  0  0  0  0  0  0  0  0  0  0  0
  1  2  1  0  0  0  0 
  2  3  2  0  0  0  0 
  3  4  1  0  0  0  0 
  4  5  1  0  0  0  0 
  5  6  1  1  0  0  0 
  6  1  1  0  0  0  0 
  5  7  1  0  0  0  0 
  7  8  1  0  0  0  0 
  8  4  1  0  0  0  0 
  8  9  2  0  0  0  0 
  7 10  1  1  0  0  0 
 10 11  1  0  0  0  0 
 11 12  2  0  0  0  0 
 11 13  1  0  0  0  0 
 13 14  1  0  0  0  0 
 14 15  2  0  0  0  0 
 15 16  1  0  0  0  0 
 16 17  2  0  0  0  0 
 17 18  1  0  0  0  0 
 18 14  1  0  0  0  0 
  3 19  1  0  0  0  0 
 19 20  2  0  0  0  0 
 19 21  1  0  0  0  0 
  2 22  1  0  0  0  0 
 22 23  1  0  0  0  0 
 23 24  2  0  0  0  0 
 24 25  1  0  0  0  0 
 25 26  2  0  0  0  0 
 26 27  1  0  0  0  0 
 27 28  2  0  0  0  0 
 28 23  1  0  0  0  0 
 26 29  1  0  0  0  0 
 29 30  2  0  0  0  0 
 29 31  1  0  0  0  0 
M  CHG  1  21  -1
M  CHG  1  23   1
M  END
> <ID>
CHEBI:95345

> <NAME>
(6R,7R)-3-[(4-carbamoyl-1-pyridin-1-iumyl)methyl]-8-oxo-7-[(1-oxo-2-thiophen-2-ylethyl)amino]-5-thia-1-azabicyclo[4.2.0]oct-2-ene-2-carboxylate

> <STAR>
2

> <FORMULA>
C20H18N4O5S2

> <MASS>
458.514

> <MONOISOTOPIC_MASS>
458.07186

> <CHARGE>
0

> <SMILES>
C1C(=C(N2[C@H](S1)[C@@H](C2=O)NC(=O)CC3=CC=CS3)C(=O)[O-])C[N+]4=CC=C(C=C4)C(=O)N

> <INCHI>
InChI=1S/C20H18N4O5S2/c21-17(26)11-3-5-23(6-4-11)9-12-10-31-19-15(18(27)24(19)16(12)20(28)29)22-14(25)8-13-2-1-7-30-13/h1-7,15,19H,8-10H2,(H3-,21,22,25,26,28,29)/t15-,19-/m1/s1

> <INCHIKEY>
FMZXNVLFJHCSAF-DNVCBOLYSA-N

> <LINCS_ACCESSION>
LSM-6717

$$$$

Marvin  11020614312D          
 
 47 53  0  0  0  0            999 V2000
    0.0100   -5.7710    0.0000 C   0  0  0  0  0  0  0  0  0  0  0  0
    0.7234   -5.3674    0.0000 C   0  0  0  0  0  0  0  0  0  0  0  0
   -0.7034   -5.3542    0.0000 C   0  0  1  0  0  0  0  0  0  0  0  0
    0.0029   -6.5913    0.0000 C   0  0  0  0  0  0  0  0  0  0  0  0
    1.4053   -5.7805    0.0000 C   0  0  0  0  0  0  0  0  0  0  0  0
    1.4089   -4.9531    0.0000 O   0  0  0  0  0  0  0  0  0  0  0  0
   -1.4099   -4.9304    0.0000 C   0  0  0  0  0  0  0  0  0  0  0  0
   -1.4169   -5.7578    0.0000 N   0  3  3  0  0  0  0  0  0  0  0  0
    0.7093   -7.0117    0.0000 C   0  0  0  0  0  0  0  0  0  0  0  0
   -0.7142   -6.9985    0.0000 C   0  0  0  0  0  0  0  0  0  0  0  0
    1.4264   -6.6011    0.0000 C   0  0  0  0  0  0  0  0  0  0  0  0
    2.1504   -5.3736    0.0000 O   0  0  0  0  0  0  0  0  0  0  0  0
    1.4371   -4.1259    0.0000 C   0  0  0  0  0  0  0  0  0  0  0  0
   -1.3993   -4.1029    0.0000 C   0  0  0  0  0  0  0  0  0  0  0  0
   -1.4241   -6.5817    0.0000 C   0  0  0  0  0  0  0  0  0  0  0  0
   -2.1269   -5.3410    0.0000 C   0  0  0  0  0  0  0  0  0  0  0  0
   -2.1270   -6.1614    0.0000 C   0  0  0  0  0  0  0  0  0  0  0  0
    2.1362   -7.0249    0.0000 O   0  0  0  0  0  0  0  0  0  0  0  0
    0.6886   -3.7159    0.0000 C   0  0  0  0  0  0  0  0  0  0  0  0
    2.1470   -3.7152    0.0000 C   0  0  0  0  0  0  0  0  0  0  0  0
   -2.1092   -3.6827    0.0000 C   0  0  0  0  0  0  0  0  0  0  0  0
   -0.6823   -3.7063    0.0000 C   0  0  0  0  0  0  0  0  0  0  0  0
    2.8602   -6.6144    0.0000 C   0  0  0  0  0  0  0  0  0  0  0  0
    0.7132   -2.8885    0.0000 C   0  0  0  0  0  0  0  0  0  0  0  0
    2.1472   -2.8877    0.0000 C   0  0  0  0  0  0  0  0  0  0  0  0
   -2.0985   -2.8588    0.0000 C   0  0  0  0  0  0  0  0  0  0  0  0
   -0.6717   -2.8790    0.0000 C   0  0  0  0  0  0  0  0  0  0  0  0
    1.4302   -2.4814    0.0000 C   0  0  0  0  0  0  0  0  0  0  0  0
   -2.0808   -1.2285    0.0000 O   0  0  0  0  0  0  0  0  0  0  0  0
   -1.3780   -2.4517    0.0000 C   0  0  0  0  0  0  0  0  0  0  0  0
    1.4302   -1.6540    0.0000 C   0  0  0  0  0  0  0  0  0  0  0  0
   -1.4340   -0.8176    0.0000 C   0  0  0  0  0  0  0  0  0  0  0  0
   -1.3639   -1.6279    0.0000 O   0  0  0  0  0  0  0  0  0  0  0  0
    0.7063   -1.2407    0.0000 C   0  0  1  0  0  0  0  0  0  0  0  0
   -0.7206   -1.2344    0.0000 C   0  0  0  0  0  0  0  0  0  0  0  0
   -1.4304    0.0063    0.0000 C   0  0  0  0  0  0  0  0  0  0  0  0
   -0.0036   -0.8239    0.0000 C   0  0  0  0  0  0  0  0  0  0  0  0
    1.4269   -0.8301    0.0000 N   0  0  0  0  0  0  0  0  0  0  0  0
   -0.7134    0.4203    0.0000 C   0  0  0  0  0  0  0  0  0  0  0  0
   -2.1439    0.4266    0.0000 O   0  0  0  0  0  0  0  0  0  0  0  0
    0.0000    0.0000    0.0000 C   0  0  0  0  0  0  0  0  0  0  0  0
    1.4305   -0.0062    0.0000 C   0  0  0  0  0  0  0  0  0  0  0  0
    2.1403   -1.2469    0.0000 C   0  0  0  0  0  0  0  0  0  0  0  0
   -2.8644    0.0125    0.0000 C   0  0  0  0  0  0  0  0  0  0  0  0
    0.7135    0.4141    0.0000 C   0  0  0  0  0  0  0  0  0  0  0  0
    0.0206   -4.9366    0.0000 H   0  0  0  0  0  0  0  0  0  0  0  0
   -0.0036   -1.6478    0.0000 H   0  0  0  0  0  0  0  0  0  0  0  0
  1  2  2  0  0  0  0
  1  3  1  0  0  0  0
  1  4  1  0  0  0  0
  2  5  1  0  0  0  0
  2  6  1  0  0  0  0
  3  7  1  0  0  0  0
  3  8  1  0  0  0  0
  4  9  2  0  0  0  0
  4 10  1  0  0  0  0
  5 11  2  0  0  0  0
  5 12  1  0  0  0  0
  6 13  1  0  0  0  0
  7 14  1  0  0  0  0
  8 15  1  0  0  0  0
  8 16  1  0  0  0  0
  8 17  1  0  0  0  0
 11 18  1  0  0  0  0
 13 19  1  0  0  0  0
 13 20  2  0  0  0  0
 14 21  2  0  0  0  0
 14 22  1  0  0  0  0
 18 23  1  0  0  0  0
 19 24  2  0  0  0  0
 20 25  1  0  0  0  0
 21 26  1  0  0  0  0
 22 27  2  0  0  0  0
 24 28  1  0  0  0  0
 26 29  1  0  0  0  0
 26 30  2  0  0  0  0
 28 31  1  0  0  0  0
 29 32  1  0  0  0  0
 30 33  1  0  0  0  0
 31 34  1  0  0  0  0
 32 35  1  0  0  0  0
 32 36  2  0  0  0  0
 34 37  1  0  0  0  0
 34 38  1  0  0  0  0
 36 39  1  0  0  0  0
 36 40  1  0  0  0  0
 37 41  1  0  0  0  0
 38 42  1  0  0  0  0
 38 43  1  0  0  0  0
 40 44  1  0  0  0  0
 41 45  1  0  0  0  0
  9 11  1  0  0  0  0
 10 15  1  0  0  0  0
 25 28  2  0  0  0  0
 27 30  1  0  0  0  0
 35 37  2  0  0  0  0
 39 41  2  0  0  0  0
 42 45  1  0  0  0  0
  3 46  1  1  0  0  0
 34 47  1  6  0  0  0
M  CHG  1   8   1
M  END
> <ID>
CHEBI:9774

> <NAME>
tubocurarine

> <DEFINITION>
A benzylisoquinoline alkaloid muscle relaxant which constitutes the active component of curare.

> <STAR>
3

> <SYNONYM>
Tubocurarine; Tubocurarin; d-tubocurarine; 7',12'-dihydroxy-6,6'-dimethoxy-2,2',2'-trimethyltubocuraranium; (+)-tubocurarine

> <IUPAC_NAME>
7',12'-dihydroxy-6,6'-dimethoxy-2,2',2'-trimethyltubocuraran-2'-ium

> <FORMULA>
C37H41N2O6

> <MASS>
609.73132

> <MONOISOTOPIC_MASS>
609.29591

> <CHARGE>
1

> <SMILES>
[H][C@]12Cc3ccc(Oc4c(O)c(OC)cc5CC[N+](C)(C)[C@]([H])(Cc6ccc(O)c(Oc7cc1c(CCN2C)cc7OC)c6)c45)cc3

> <INCHI>
InChI=1S/C37H40N2O6/c1-38-14-12-24-19-32(42-4)33-21-27(24)28(38)16-22-6-9-26(10-7-22)44-37-35-25(20-34(43-5)36(37)41)13-15-39(2,3)29(35)17-23-8-11-30(40)31(18-23)45-33/h6-11,18-21,28-29H,12-17H2,1-5H3,(H-,40,41)/p+1/t28-,29+/m0/s1

> <INCHIKEY>
JFJZZMVDLULRGK-URLMMPGGSA-O

> <BEILSTEIN_REGISTRY_NUMBER>
3898737

> <CAS_REGISTRY_NUMBER>
57-95-4

> <REAXYS_REGISTRY_NUMBER>
3898737

> <CHEMIDPLUS>
57-95-4

> <DRUGBANK_ACCESSION>
DB01199

> <KEGG_COMPOUND_ACCESSION>
C07547

> <KNAPSACK_ACCESSION>
C00001927

> <LINCS_ACCESSION>
LSM-4245

> <PDBECHEM_ACCESSION>
TC9

> <WIKIPEDIA_ACCESSION>
Tubocurarine_chloride

> <PUBMED_CITATION>
2215478; 6196640; 7911306; 8166227

$$$$
